pglib_opf_case3375wp_mp.m
%%%%%%%%%%%%%%%%%%%%%%%%%%%%%%%%%%%%%%%%%%%%%%%%%%%%%%%%%%%%%%%%%%%%%%%%%%%
%%%%                                                                  %%%%%
%%%%    IEEE PES Power Grid Library - Optimal Power Flow - v17.07     %%%%%
%%%%          (https://github.com/power-grid-lib/pglib-opf)           %%%%%
%%%%               Benchmark Group - Typical Operations               %%%%%
%%%%                         26 - June - 2017                         %%%%%
%%%%                                                                  %%%%%
%%%%%%%%%%%%%%%%%%%%%%%%%%%%%%%%%%%%%%%%%%%%%%%%%%%%%%%%%%%%%%%%%%%%%%%%%%%
%
%   Power flow data for Polish system - winter 2007-08 evening peak.
%   Please see CASEFORMAT for details on the case file format.
%
%   This case represents the Polish 400, 220 and 110 kV networks during
%   winter 2007-08 evening peak conditions and includes some equivalents
%   of the German, Czech and Slovak networks.
%
%   Copyright (c) 2010 by Roman Korab <roman.korab@polsl.pl>
%   Licensed under the Creative Commons Attribution 4.0
%   International license, http://creativecommons.org/licenses/by/4.0/
%
function mpc = pglib_opf_case3375wp_mp
mpc.version = '2';
mpc.baseMVA = 100.0;

%% area data
%	area	refbus
mpc.areas = [
	1	 1;
];

%% bus data
%	bus_i	type	Pd	Qd	Gs	Bs	area	Vm	Va	baseKV	zone	Vmax	Vmin
mpc.bus = [
	10000	 1	 0.0	 0.0	 0.0	 0.0	 0	    1.03080	  -11.13813	 400.0	 0	    1.05000	    0.95000;
	10001	 1	 0.0	 0.0	 0.0	 0.0	 0	    1.01242	  -13.90159	 400.0	 0	    1.05000	    0.95000;
	10002	 1	 0.0	 0.0	 0.0	 0.0	 0	    1.09220	  -16.30137	 220.0	 0	    1.11000	    0.95000;
	10003	 1	 0.0	 0.0	 0.0	 0.0	 0	    1.01171	  -17.09633	 400.0	 0	    1.05000	    0.95000;
	10004	 1	 0.0	 0.0	 0.0	 0.0	 0	    1.04266	  -13.61298	 400.0	 0	    1.05000	    0.95000;
	10005	 1	 0.0	 0.0	 0.0	 0.0	 0	    1.02379	  -15.72303	 400.0	 0	    1.05000	    0.95000;
	10006	 1	 0.0	 0.0	 0.0	 0.0	 0	    1.03792	   -9.00485	 400.0	 0	    1.05000	    0.95000;
	10007	 1	 0.0	 0.0	 0.0	 0.0	 0	    1.09325	  -15.19949	 220.0	 0	    1.11000	    0.95000;
	10008	 1	 0.0	 0.0	 0.0	 0.0	 0	    1.07112	  -17.29091	 220.0	 0	    1.11000	    0.95000;
	10009	 1	 0.0	 0.0	 0.0	 0.0	 0	    1.02181	  -16.46637	 400.0	 0	    1.05000	    0.95000;
	10010	 1	 0.0	 0.0	 0.0	 0.0	 0	    1.04971	  -11.41531	 400.0	 0	    1.05000	    0.95000;
	10011	 1	 0.0	 0.0	 0.0	 0.0	 0	    1.02186	  -17.92843	 400.0	 0	    1.05000	    0.95000;
	10012	 1	 0.0	 0.0	 0.0	 0.0	 0	    1.02186	  -17.92843	 400.0	 0	    1.05000	    0.95000;
	10013	 1	 0.0	 0.0	 0.0	 0.0	 0	    1.04571	  -11.84934	 400.0	 0	    1.05000	    0.95000;
	10014	 1	 0.0	 0.0	 0.0	 0.0	 0	    1.04593	  -11.88090	 400.0	 0	    1.05000	    0.95000;
	10015	 1	 0.0	 0.0	 0.0	 0.0	 0	    1.04038	  -17.77761	 400.0	 0	    1.05000	    0.95000;
	10016	 1	 0.0	 0.0	 0.0	 0.0	 0	    1.04590	  -11.76831	 400.0	 0	    1.05000	    0.95000;
	10017	 1	 0.0	 0.0	 0.0	 0.0	 0	    1.04583	  -11.77241	 400.0	 0	    1.05000	    0.95000;
	10018	 1	 0.0	 0.0	 0.0	 0.0	 0	    1.04581	  -11.76516	 400.0	 0	    1.05000	    0.95000;
	10019	 1	 0.0	 0.0	 0.0	 0.0	 0	    1.04594	  -11.88093	 400.0	 0	    1.05000	    0.95000;
	10020	 1	 0.0	 0.0	 0.0	 0.0	 0	    1.01092	  -12.84428	 400.0	 0	    1.05000	    0.95000;
	10021	 1	 0.0	 0.0	 0.0	 0.0	 0	    1.09633	  -16.06524	 220.0	 0	    1.11000	    0.95000;
	10022	 1	 0.0	 0.0	 0.0	 0.0	 0	    1.09226	  -16.43247	 220.0	 0	    1.11000	    0.95000;
	10023	 1	 0.0	 0.0	 0.0	 0.0	 0	    1.02547	  -10.36792	 400.0	 0	    1.05000	    0.95000;
	10024	 1	 0.0	 0.0	 0.0	 0.0	 0	    1.02527	  -10.47166	 400.0	 0	    1.05000	    0.95000;
	10025	 1	 0.0	 0.0	 0.0	 0.0	 0	    1.02543	  -10.38781	 400.0	 0	    1.05000	    0.95000;
	10026	 1	 0.0	 0.0	 0.0	 0.0	 0	    1.03172	   -7.01142	 400.0	 0	    1.05000	    0.95000;
	10027	 1	 0.0	 0.0	 0.0	 0.0	 0	    1.03205	   -6.73370	 400.0	 0	    1.05000	    0.95000;
	10028	 1	 0.0	 0.0	 0.0	 0.0	 0	    1.03198	   -6.53147	 400.0	 0	    1.05000	    0.95000;
	10029	 1	 0.0	 0.0	 0.0	 0.0	 0	    1.05000	  -10.84055	 400.0	 0	    1.05000	    0.95000;
	10030	 1	 0.0	 0.0	 0.0	 0.0	 0	    1.05000	  -10.83533	 400.0	 0	    1.05000	    0.95000;
	10031	 1	 0.0	 0.0	 0.0	 0.0	 0	    1.10382	  -10.96001	 220.0	 0	    1.11000	    0.95000;
	10032	 1	 0.0	 0.0	 0.0	 0.0	 0	    1.03186	   -7.02740	 400.0	 0	    1.05000	    0.95000;
	10033	 1	 0.0	 0.0	 0.0	 0.0	 0	    1.03183	   -7.02720	 400.0	 0	    1.05000	    0.95000;
	10034	 1	 0.0	 0.0	 0.0	 0.0	 0	    1.03993	  -13.62546	 400.0	 0	    1.05000	    0.95000;
	10035	 1	 0.0	 0.0	 0.0	 0.0	 0	    1.07906	  -11.53523	 220.0	 0	    1.11000	    0.95000;
	10036	 1	 0.0	 0.0	 0.0	 0.0	 0	    1.07916	  -11.54307	 220.0	 0	    1.11000	    0.95000;
	10037	 1	 0.0	 0.0	 0.0	 0.0	 0	    1.03207	   -7.12870	 400.0	 0	    1.05000	    0.95000;
	10038	 1	 0.0	 0.0	 0.0	 0.0	 0	    1.03212	   -7.13769	 400.0	 0	    1.05000	    0.95000;
	10039	 1	 0.0	 0.0	 0.0	 0.0	 0	    1.03338	   -7.21598	 400.0	 0	    1.05000	    0.95000;
	10040	 1	 0.0	 0.0	 0.0	 0.0	 0	    1.02079	  -13.26319	 400.0	 0	    1.05000	    0.95000;
	10041	 1	 0.0	 0.0	 0.0	 0.0	 0	    1.04965	  -10.97221	 400.0	 0	    1.05000	    0.95000;
	10042	 1	 0.0	 0.0	 0.0	 0.0	 0	    1.03108	  -18.40813	 400.0	 0	    1.05000	    0.95000;
	10043	 1	 0.0	 0.0	 0.0	 0.0	 0	    1.08129	  -14.31820	 220.0	 0	    1.11000	    0.95000;
	10044	 1	 0.0	 0.0	 0.0	 0.0	 0	    1.09260	  -13.55339	 220.0	 0	    1.11000	    0.95000;
	10045	 1	 0.0	 0.0	 0.0	 0.0	 0	    1.07118	  -18.18131	 220.0	 0	    1.11000	    0.95000;
	10046	 1	 0.0	 0.0	 0.0	 0.0	 0	    1.09222	  -16.43198	 220.0	 0	    1.11000	    0.95000;
	10047	 1	 0.0	 0.0	 0.0	 0.0	 0	    1.02153	  -19.16439	 400.0	 0	    1.05000	    0.95000;
	10048	 1	 0.0	 0.0	 0.0	 0.0	 0	    1.02939	  -11.51786	 400.0	 0	    1.05000	    0.95000;
	10049	 1	 0.0	 0.0	 0.0	 0.0	 0	    1.03819	  -11.91465	 400.0	 0	    1.05000	    0.95000;
	10050	 1	 0.0	 0.0	 0.0	 0.0	 0	    1.04965	  -10.97221	 400.0	 0	    1.05000	    0.95000;
	10051	 1	 0.0	 0.0	 0.0	 0.0	 0	    1.07225	  -18.07299	 220.0	 0	    1.11000	    0.95000;
	10052	 1	 0.0	 0.0	 0.0	 0.0	 0	    1.03741	  -16.22417	 400.0	 0	    1.05000	    0.95000;
	10053	 1	 0.0	 0.0	 0.0	 0.0	 0	    1.10301	  -10.39348	 220.0	 0	    1.11000	    0.95000;
	10054	 1	 0.0	 0.0	 0.0	 0.0	 0	    1.10301	  -10.39348	 220.0	 0	    1.11000	    0.95000;
	10055	 1	 0.0	 0.0	 0.0	 0.0	 0	    1.09258	  -14.25116	 220.0	 0	    1.11000	    0.95000;
	10056	 1	 0.0	 0.0	 0.0	 0.0	 0	    1.03844	   -9.28178	 400.0	 0	    1.05000	    0.95000;
	10057	 1	 0.0	 0.0	 0.0	 0.0	 0	    1.03406	   -8.22956	 400.0	 0	    1.05000	    0.95000;
	10058	 1	 0.0	 0.0	 0.0	 0.0	 0	    1.06533	  -16.57678	 220.0	 0	    1.11000	    0.95000;
	10059	 1	 0.0	 0.0	 0.0	 0.0	 0	    1.04184	  -15.68732	 400.0	 0	    1.05000	    0.95000;
	10060	 1	 0.0	 0.0	 0.0	 0.0	 0	    1.03209	   -7.13319	 400.0	 0	    1.05000	    0.95000;
	10061	 1	 0.0	 0.0	 0.0	 0.0	 0	    1.03844	   -9.28178	 400.0	 0	    1.05000	    0.95000;
	10062	 1	 0.0	 0.0	 0.0	 0.0	 0	    1.03106	  -15.02196	 400.0	 0	    1.05000	    0.95000;
	10063	 1	 0.0	 0.0	 0.0	 0.0	 0	    1.04593	  -11.88089	 400.0	 0	    1.05000	    0.95000;
	10064	 1	 0.0	 0.0	 0.0	 0.0	 0	    1.07294	  -16.01461	 220.0	 0	    1.11000	    0.95000;
	10065	 1	 0.0	 0.0	 0.0	 0.0	 0	    1.04727	  -13.24159	 400.0	 0	    1.05000	    0.95000;
	10066	 1	 0.0	 0.0	 0.0	 0.0	 0	    1.04972	  -12.00646	 400.0	 0	    1.05000	    0.95000;
	10067	 1	 0.0	 0.0	 0.0	 0.0	 0	    1.07382	  -15.14867	 220.0	 0	    1.11000	    0.95000;
	10068	 1	 0.0	 0.0	 0.0	 0.0	 0	    1.04999	  -12.86856	 400.0	 0	    1.05000	    0.95000;
	10069	 1	 0.0	 0.0	 0.0	 0.0	 0	    1.07961	  -18.64678	 220.0	 0	    1.11000	    0.95000;
	10070	 1	 0.0	 0.0	 0.0	 0.0	 0	    1.02181	  -17.92818	 400.0	 0	    1.05000	    0.95000;
	10071	 2	 16.0	 8.0	 0.0	 0.0	 0	    1.10714	  -14.74961	 220.0	 0	    1.11000	    0.95000;
	10072	 1	 0.0	 0.0	 0.0	 0.0	 0	    1.10229	  -11.12219	 220.0	 0	    1.11000	    0.95000;
	10073	 1	 0.0	 0.0	 0.0	 0.0	 1	    1.08105	  -12.53445	 220.0	 0	    1.11000	    0.95000;
	10074	 1	 0.0	 0.0	 0.0	 0.0	 0	    1.08098	  -12.51797	 220.0	 0	    1.11000	    0.95000;
	10075	 1	 0.0	 0.0	 0.0	 0.0	 0	    1.08252	  -13.38407	 220.0	 0	    1.11000	    0.95000;
	10076	 1	 0.0	 0.0	 0.0	 0.0	 0	    1.02526	  -10.47160	 400.0	 0	    1.05000	    0.95000;
	10077	 1	 0.0	 0.0	 0.0	 0.0	 0	    1.02526	  -10.47160	 400.0	 0	    1.05000	    0.95000;
	10078	 1	 305.5	 -14.0	 0.0	 0.0	 0	    1.02689	   -7.25601	 400.0	 0	    1.05000	    0.95000;
	10079	 2	 -1529.6	 4542.9	 0.0	 0.0	 0	    0.99511	    1.13540	 400.0	 0	    1.05000	    0.95000;
	10080	 2	 -159.1	 -181.0	 0.0	 0.0	 0	    1.03351	   -3.68411	 400.0	 0	    1.05000	    0.95000;
	10081	 1	 -1078.3	 -374.1	 0.0	 0.0	 0	    1.02815	    0.24330	 400.0	 0	    1.05000	    0.95000;
	10082	 1	 943.2	 310.2	 0.0	 0.0	 0	    0.99656	   -3.41015	 400.0	 0	    1.05000	    0.95000;
	10083	 1	 97.0	 26.0	 0.0	 0.0	 0	    1.02343	   -3.84859	 400.0	 0	    1.05000	    0.95000;
	10084	 1	 0.6	 160.0	 0.0	 0.0	 0	    1.02415	   -3.63583	 400.0	 0	    1.05000	    0.95000;
	10085	 1	 161.6	 183.6	 0.0	 0.0	 0	    1.02318	   -3.79694	 400.0	 0	    1.05000	    0.95000;
	10086	 1	 288.6	 221.6	 0.0	 0.0	 0	    1.02317	   -3.79968	 400.0	 0	    1.05000	    0.95000;
	10087	 1	 0.0	 0.0	 0.0	 0.0	 0	    1.02513	   -3.50622	 400.0	 0	    1.05000	    0.95000;
	10088	 1	 0.0	 0.0	 0.0	 0.0	 0	    1.07259	   -3.99442	 220.0	 0	    1.11000	    0.95000;
	10089	 1	 0.0	 0.0	 0.0	 0.0	 0	    1.07030	   -4.12315	 220.0	 0	    1.11000	    0.95000;
	10090	 2	 274.4	 279.6	 0.0	 0.0	 0	    1.02351	   -3.85776	 400.0	 0	    1.05000	    0.95000;
	10091	 1	 94.2	 111.8	 0.0	 0.0	 0	    1.02386	   -3.92579	 400.0	 0	    1.05000	    0.95000;
	10092	 1	 0.0	 0.0	 0.0	 0.0	 0	    1.06906	   -4.22425	 220.0	 0	    1.11000	    0.95000;
	10093	 1	 0.0	 0.0	 0.0	 0.0	 0	    1.07177	   -4.07485	 220.0	 0	    1.11000	    0.95000;
	10094	 2	 0.0	 0.0	 0.0	 0.0	 0	    0.99530	   -3.25836	 400.0	 0	    1.05000	    0.95000;
	10095	 2	 4.4	 -2590.1	 0.0	 0.0	 0	    1.05000	   -4.99970	 400.0	 0	    1.05000	    0.95000;
	10096	 1	 488.0	 79.1	 0.0	 0.0	 0	    1.00211	   -5.02709	 400.0	 0	    1.05000	    0.95000;
	10097	 1	 601.0	 147.9	 0.0	 0.0	 0	    1.01855	   -5.02415	 400.0	 0	    1.05000	    0.95000;
	10098	 1	 527.0	 265.1	 0.0	 0.0	 0	    1.00302	   -4.17092	 400.0	 0	    1.05000	    0.95000;
	10099	 1	 0.0	 0.0	 0.0	 0.0	 0	    1.00533	   -1.40901	 400.0	 0	    1.05000	    0.95000;
	10100	 2	 0.0	 0.0	 0.0	 0.0	 0	    1.03812	   -0.04172	 400.0	 0	    1.05000	    0.95000;
	10101	 1	 0.0	 0.0	 0.0	 0.0	 0	    1.01560	  -14.12441	 220.0	 0	    1.11000	    0.95000;
	10102	 1	 120.0	 25.0	 0.0	 0.0	 0	    1.04580	   -8.31780	 220.0	 0	    1.11000	    0.95000;
	10103	 1	 0.0	 0.0	 0.0	 0.0	 0	    0.99144	   -1.83947	 400.0	 0	    1.05000	    0.95000;
	10104	 2	 200.2	 48.7	 0.0	 0.0	 0	    0.97244	   -0.31116	 400.0	 0	    1.05000	    0.95000;
	10105	 1	 0.0	 0.0	 0.0	 0.0	 0	    1.06147	   -6.88128	 220.0	 0	    1.11000	    0.95000;
	10106	 1	 0.0	 0.0	 0.0	 0.0	 0	    1.03236	   -3.82775	 400.0	 0	    1.05000	    0.95000;
	10107	 1	 0.0	 0.0	 0.0	 0.0	 0	    1.03184	   -1.69788	 400.0	 0	    1.05000	    0.95000;
	10108	 1	 0.0	 0.0	 0.0	 0.0	 0	    1.03245	   -1.37633	 400.0	 0	    1.05000	    0.95000;
	10109	 1	 0.0	 0.0	 0.0	 0.0	 0	    1.03181	   -1.61975	 400.0	 0	    1.05000	    0.95000;
	10110	 1	 0.0	 0.0	 0.0	 0.0	 0	    1.03244	   -1.29349	 400.0	 0	    1.05000	    0.95000;
	10111	 1	 0.0	 0.0	 0.0	 0.0	 0	    1.02187	   -0.69738	 400.0	 0	    1.05000	    0.95000;
	10112	 1	 0.0	 0.0	 0.0	 0.0	 0	    1.10809	   -3.99713	 220.0	 0	    1.11000	    0.95000;
	10113	 1	 0.0	 0.0	 0.0	 0.0	 0	    1.01886	   -1.52551	 400.0	 0	    1.05000	    0.95000;
	10114	 1	 0.0	 0.0	 0.0	 0.0	 0	    1.08950	   -5.99217	 220.0	 0	    1.11000	    0.95000;
	10115	 2	 0.0	 0.0	 0.0	 0.0	 0	    1.00433	   -1.19792	 400.0	 0	    1.05000	    0.95000;
	10116	 2	 0.0	 0.0	 0.0	 0.0	 0	    1.00433	   -1.19792	 400.0	 0	    1.05000	    0.95000;
	10117	 1	 0.0	 0.0	 0.0	 0.0	 0	    1.02520	   -4.15053	 400.0	 0	    1.05000	    0.95000;
	10118	 2	 0.0	 0.0	 0.0	 0.0	 0	    1.03691	    0.39753	 400.0	 0	    1.05000	    0.95000;
	10119	 1	 0.0	 0.0	 0.0	 0.0	 0	    1.01202	   -2.26758	 400.0	 0	    1.05000	    0.95000;
	10120	 1	 0.0	 0.0	 0.0	 0.0	 0	    1.00677	   -2.46206	 400.0	 0	    1.05000	    0.95000;
	10121	 1	 80.0	 20.0	 0.0	 0.0	 0	    1.04154	   -7.96447	 220.0	 0	    1.11000	    0.95000;
	10122	 1	 0.0	 0.0	 0.0	 0.0	 0	    1.04826	   -8.84132	 220.0	 0	    1.11000	    0.95000;
	10123	 1	 0.0	 0.0	 0.0	 0.0	 0	    1.04988	   -3.72080	 400.0	 0	    1.05000	    0.95000;
	10124	 1	 0.0	 0.0	 0.0	 0.0	 0	    1.02256	    1.05663	 400.0	 0	    1.05000	    0.95000;
	10125	 1	 0.0	 0.0	 0.0	 0.0	 0	    1.01674	   -3.27685	 400.0	 0	    1.05000	    0.95000;
	10126	 2	 0.0	 0.0	 0.0	 0.0	 0	    1.01140	   -2.46159	 400.0	 0	    1.05000	    0.95000;
	10127	 1	 0.0	 0.0	 0.0	 0.0	 0	    1.09536	   -6.23951	 220.0	 0	    1.11000	    0.95000;
	10128	 1	 0.0	 0.0	 0.0	 0.0	 0	    1.09536	   -6.23951	 220.0	 0	    1.11000	    0.95000;
	10129	 2	 0.2	 100.0	 0.0	 0.0	 0	    1.01600	    2.06577	 400.0	 0	    1.05000	    0.95000;
	10130	 1	 0.0	 0.0	 0.0	 0.0	 0	    1.01615	    2.03710	 400.0	 0	    1.05000	    0.95000;
	10131	 1	 0.0	 0.0	 0.0	 0.0	 0	    1.01094	   -2.95084	 400.0	 0	    1.05000	    0.95000;
	10132	 2	 0.0	 0.0	 0.0	 0.0	 0	    1.02745	   -3.62826	 400.0	 0	    1.05000	    0.95000;
	10133	 1	 0.0	 0.0	 0.0	 0.0	 0	    1.02990	   -2.37430	 400.0	 0	    1.05000	    0.95000;
	10134	 1	 0.0	 0.0	 0.0	 0.0	 0	    1.02917	   -3.00224	 400.0	 0	    1.05000	    0.95000;
	10135	 1	 0.0	 0.0	 0.0	 0.0	 0	    1.03103	   -7.93927	 220.0	 0	    1.11000	    0.95000;
	10136	 1	 0.0	 0.0	 0.0	 0.0	 0	    1.06848	   -6.55942	 220.0	 0	    1.11000	    0.95000;
	10137	 1	 0.0	 0.0	 0.0	 0.0	 0	    1.01100	  -16.29765	 220.0	 0	    1.11000	    0.95000;
	10138	 1	 0.0	 0.0	 0.0	 0.0	 0	    1.02158	   -3.85147	 400.0	 0	    1.05000	    0.95000;
	10139	 2	 0.0	 0.0	 0.0	 0.0	 0	    1.03013	   -0.62973	 400.0	 0	    1.05000	    0.95000;
	10140	 2	 0.0	 0.0	 0.0	 0.0	 0	    1.03128	   -0.14002	 400.0	 0	    1.05000	    0.95000;
	10141	 2	 0.0	 0.0	 0.0	 0.0	 0	    1.01621	   -0.64106	 400.0	 0	    1.05000	    0.95000;
	10142	 1	 0.0	 0.0	 0.0	 0.0	 0	    1.02001	   -3.53222	 400.0	 0	    1.05000	    0.95000;
	10143	 1	 0.0	 0.0	 0.0	 0.0	 0	    1.03014	   -1.91851	 400.0	 0	    1.05000	    0.95000;
	10144	 1	 0.0	 0.0	 0.0	 0.0	 0	    1.03017	   -1.91750	 400.0	 0	    1.05000	    0.95000;
	10145	 1	 0.0	 0.0	 0.0	 0.0	 0	    1.00959	   -2.73862	 400.0	 0	    1.05000	    0.95000;
	10146	 2	 0.0	 0.0	 0.0	 0.0	 0	    1.05652	   -2.53287	 220.0	 0	    1.11000	    0.95000;
	10147	 1	 0.0	 0.0	 0.0	 0.0	 0	    1.02787	   -4.44360	 400.0	 0	    1.05000	    0.95000;
	10148	 1	 0.0	 0.0	 0.0	 0.0	 0	    1.07043	   -6.22429	 220.0	 0	    1.11000	    0.95000;
	10149	 1	 0.0	 0.0	 0.0	 0.0	 0	    1.07041	   -6.22718	 220.0	 0	    1.11000	    0.95000;
	10150	 2	 0.0	 0.0	 0.0	 0.0	 0	    0.98988	   -1.68792	 400.0	 0	    1.05000	    0.95000;
	10151	 1	 0.0	 0.0	 0.0	 0.0	 0	    1.03993	   -2.57278	 400.0	 0	    1.05000	    0.95000;
	10152	 1	 0.0	 0.0	 0.0	 0.0	 0	    1.02352	    0.40183	 400.0	 0	    1.05000	    0.95000;
	10153	 1	 0.0	 0.0	 0.0	 0.0	 0	    1.02872	   -1.84721	 400.0	 0	    1.05000	    0.95000;
	10154	 1	 80.0	 20.0	 0.0	 0.0	 0	    1.04965	   -3.25182	 220.0	 0	    1.11000	    0.95000;
	10155	 1	 0.0	 0.0	 0.0	 0.0	 0	    1.08080	   -6.40290	 220.0	 0	    1.11000	    0.95000;
	10156	 1	 0.0	 0.0	 0.0	 0.0	 0	    1.02106	   -4.00413	 400.0	 0	    1.05000	    0.95000;
	10157	 1	 0.0	 0.0	 0.0	 0.0	 0	    1.07269	   -4.11713	 220.0	 0	    1.11000	    0.95000;
	10158	 1	 0.0	 0.0	 0.0	 0.0	 0	    1.01386	   -1.92178	 400.0	 0	    1.05000	    0.95000;
	10159	 1	 0.0	 0.0	 0.0	 0.0	 0	    1.11000	   -3.85914	 220.0	 0	    1.11000	    0.95000;
	10160	 1	 0.0	 0.0	 0.0	 0.0	 0	    1.02921	  -16.51366	 220.0	 0	    1.11000	    0.95000;
	10161	 1	 0.0	 0.0	 0.0	 0.0	 0	    1.01906	   -3.71009	 400.0	 0	    1.05000	    0.95000;
	10162	 1	 0.0	 0.0	 0.0	 0.0	 0	    1.05733	   -7.95915	 220.0	 0	    1.11000	    0.95000;
	10163	 1	 0.0	 0.0	 0.0	 0.0	 0	    1.09421	   -6.43486	 220.0	 0	    1.11000	    0.95000;
	10164	 1	 0.0	 0.0	 0.0	 0.0	 0	    1.03298	   -3.71986	 400.0	 0	    1.05000	    0.95000;
	10165	 1	 0.0	 0.0	 0.0	 0.0	 0	    1.02147	   -4.51354	 400.0	 0	    1.05000	    0.95000;
	10166	 1	 0.0	 0.0	 0.0	 0.0	 0	    1.05329	   -7.32448	 220.0	 0	    1.11000	    0.95000;
	10167	 1	 0.0	 0.0	 0.0	 0.0	 0	    1.02672	   -4.11858	 400.0	 0	    1.05000	    0.95000;
	10168	 1	 0.0	 0.0	 0.0	 0.0	 0	    1.02672	   -4.11858	 400.0	 0	    1.05000	    0.95000;
	10169	 1	 0.0	 0.0	 0.0	 0.0	 0	    1.02706	   -4.07186	 400.0	 0	    1.05000	    0.95000;
	10170	 1	 0.0	 0.0	 0.0	 0.0	 0	    1.02706	   -4.07186	 400.0	 0	    1.05000	    0.95000;
	10171	 2	 -104.8	 -159.0	 0.0	 0.0	 0	    0.99541	   -3.25362	 400.0	 0	    1.05000	    0.95000;
	10172	 1	 247.4	 -57.5	 0.0	 0.0	 0	    1.04998	   -5.00383	 400.0	 0	    1.05000	    0.95000;
	10173	 1	 247.4	 -57.5	 0.0	 0.0	 0	    1.04998	   -5.00383	 400.0	 0	    1.05000	    0.95000;
	10174	 1	 371.5	 403.5	 0.0	 0.0	 0	    1.00138	   -5.04884	 400.0	 0	    1.05000	    0.95000;
	10176	 2	 -249.9	 162.6	 0.0	 0.0	 0	    0.99912	   -3.45093	 400.0	 0	    1.05000	    0.95000;
	10177	 2	 -249.9	 162.6	 0.0	 0.0	 0	    0.99912	   -3.45093	 400.0	 0	    1.05000	    0.95000;
	10178	 1	 52.5	 207.2	 0.0	 0.0	 0	    1.02696	  -10.32461	 400.0	 0	    1.05000	    0.95000;
	10179	 1	 379.5	 54.6	 0.0	 0.0	 0	    1.04077	  -13.01622	 400.0	 0	    1.05000	    0.95000;
	10180	 1	 73.6	 -95.6	 0.0	 0.0	 0	    1.09253	  -16.46088	 220.0	 0	    1.11000	    0.95000;
	10181	 1	 73.6	 -95.6	 0.0	 0.0	 0	    1.09253	  -16.46088	 220.0	 0	    1.11000	    0.95000;
	10182	 1	 107.2	 -44.4	 0.0	 0.0	 0	    1.05000	  -12.36271	 400.0	 0	    1.05000	    0.95000;
	10183	 1	 86.0	 8.0	 0.0	 0.0	 0	    1.04806	  -10.40623	 400.0	 0	    1.05000	    0.95000;
	10184	 1	 70.0	 49.0	 0.0	 0.0	 0	    1.05545	  -14.32001	 220.0	 0	    1.11000	    0.95000;
	10185	 1	 0.0	 0.0	 0.0	 0.0	 0	    1.04668	  -12.72338	 400.0	 0	    1.05000	    0.95000;
	10186	 2	 0.0	 0.0	 0.0	 0.0	 0	    1.09376	   -7.53061	 220.0	 0	    1.11000	    0.95000;
	10187	 2	 0.0	 0.0	 0.0	 0.0	 0	    1.09383	   -7.49791	 220.0	 0	    1.11000	    0.95000;
	10188	 2	 0.0	 0.0	 0.0	 0.0	 0	    1.04585	   -9.07342	 400.0	 0	    1.05000	    0.95000;
	10189	 2	 10.2	 0.0	 0.0	 0.0	 0	    1.04693	  -10.24640	 400.0	 0	    1.05000	    0.95000;
	10190	 2	 0.0	 0.0	 0.0	 0.0	 0	    1.04461	   -9.89670	 400.0	 0	    1.05000	    0.95000;
	10191	 2	 0.0	 0.0	 0.0	 0.0	 0	    1.04462	   -9.89110	 400.0	 0	    1.05000	    0.95000;
	10192	 2	 0.0	 0.0	 0.0	 0.0	 0	    1.05235	  -11.05903	 220.0	 0	    1.11000	    0.95000;
	10193	 1	 0.0	 0.0	 0.0	 0.0	 0	    1.05234	  -11.06129	 220.0	 0	    1.11000	    0.95000;
	10194	 2	 0.0	 0.0	 0.0	 0.0	 0	    1.03762	   -9.33191	 400.0	 0	    1.05000	    0.95000;
	10195	 1	 0.0	 0.0	 0.0	 0.0	 0	    1.03763	   -9.36711	 400.0	 0	    1.05000	    0.95000;
	10196	 2	 0.0	 0.0	 0.0	 0.0	 0	    1.04343	  -12.50798	 400.0	 0	    1.05000	    0.95000;
	10197	 1	 295.0	 51.9	 0.0	 0.0	 0	    1.04308	  -12.22269	 400.0	 0	    1.05000	    0.95000;
	10198	 1	 0.0	 0.0	 0.0	 0.0	 0	    1.04794	  -10.74686	 400.0	 0	    1.05000	    0.95000;
	10199	 1	 308.0	 40.0	 0.0	 0.0	 0	    1.08553	  -10.00151	 220.0	 0	    1.11000	    0.95000;
	10200	 1	 0.0	 0.0	 0.0	 0.0	 0	    1.08555	   -9.98492	 220.0	 0	    1.11000	    0.95000;
...
];

%% generator data
%	bus	Pg	Qg	Qmax	Qmin	Vg	mBase	status	Pmax	Pmin	Pc1	Pc2	Qc1min	Qc1max	Qc2min	Qc2max	ramp_agc	ramp_10	ramp_30	ramp_q	apf
mpc.gen = [
	10071	 133.9	 63.102	 103.0	 -103.0	 1.10714	 285.0	 1	 204.6	 133.9	 0.0	 0.0	 0.0	 0.0	 0.0	 0.0	 0.0	 0.0	 0.0	 0.0	 0.0; % COW
	10079	 359.9	 4000.0	 4000	 -275.0	 0.99511	 2031.0	 1	 549.9	 359.9	 0.0	 0.0	 0.0	 0.0	 0.0	 0.0	 0.0	 0.0	 0.0	 0.0	 0.0; % NG
	10080	 7.6	 -6.0	 6.0	 -6.0	 1.03351	 119.0	 1	 11.6	 7.6	 0.0	 0.0	 0.0	 0.0	 0.0	 0.0	 0.0	 0.0	 0.0	 0.0	 0.0; % NG
	10090	 410.4	 35.552	 314.0	 -314.0	 1.02351	 806.0	 1	 627.0	 410.4	 0.0	 0.0	 0.0	 0.0	 0.0	 0.0	 0.0	 0.0	 0.0	 0.0	 0.0; % NG
	10094	 554.4	 -424.0	 424.0	 -424.0	 0.9953	 970.0	 1	 847.0	 554.4	 0.0	 0.0	 0.0	 0.0	 0.0	 0.0	 0.0	 0.0	 0.0	 0.0	 0.0; % COW
	10095	 121.8	 -621.0	 621.0	 -621.0	 1.05	 1439.0	 1	 1241.5	 121.8	 0.0	 0.0	 0.0	 0.0	 0.0	 0.0	 0.0	 0.0	 0.0	 0.0	 0.0; % COW
	10100	 1267.2	 -62.776	 968.0	 -968.0	 1.03812	 2202.0	 1	 1936.0	 1267.2	 0.0	 0.0	 0.0	 0.0	 0.0	 0.0	 0.0	 0.0	 0.0	 0.0	 0.0; % NUC
	10104	 540.0	 -309.41	 413.0	 -413.0	 0.97244	 939.0	 1	 825.0	 540.0	 0.0	 0.0	 0.0	 0.0	 0.0	 0.0	 0.0	 0.0	 0.0	 0.0	 0.0; % COW
	10115	 280.8	 -112.596	 215.0	 -215.0	 1.00433	 492.0	 1	 429.0	 280.8	 0.0	 0.0	 0.0	 0.0	 0.0	 0.0	 0.0	 0.0	 0.0	 0.0	 0.0; % COW
	10116	 280.8	 -112.596	 215.0	 -215.0	 1.00433	 492.0	 1	 429.0	 280.8	 0.0	 0.0	 0.0	 0.0	 0.0	 0.0	 0.0	 0.0	 0.0	 0.0	 0.0; % NG
	10118	 1080.0	 47.092	 825.0	 -825.0	 1.03691	 1876.0	 1	 1650.0	 1080.0	 0.0	 0.0	 0.0	 0.0	 0.0	 0.0	 0.0	 0.0	 0.0	 0.0	 0.0; % COW
	10126	 424.8	 -325.0	 325.0	 -325.0	 1.0114	 786.0	 1	 649.0	 424.8	 0.0	 0.0	 0.0	 0.0	 0.0	 0.0	 0.0	 0.0	 0.0	 0.0	 0.0; % COW
	10129	 1656.0	 -583.731	 1265.0	 -1265.0	 1.016	 2974.0	 1	 2530.0	 1656.0	 0.0	 0.0	 0.0	 0.0	 0.0	 0.0	 0.0	 0.0	 0.0	 0.0	 0.0; % NUC
	10132	 583.2	 -38.368	 446.0	 -446.0	 1.02745	 1014.0	 1	 891.0	 583.2	 0.0	 0.0	 0.0	 0.0	 0.0	 0.0	 0.0	 0.0	 0.0	 0.0	 0.0; % COW
	10139	 648.0	 -233.105	 495.0	 -495.0	 1.03013	 1143.0	 1	 990.0	 648.0	 0.0	 0.0	 0.0	 0.0	 0.0	 0.0	 0.0	 0.0	 0.0	 0.0	 0.0; % COW
	10140	 972.0	 -220.546	 743.0	 -743.0	 1.03128	 1705.0	 1	 1485.0	 972.0	 0.0	 0.0	 0.0	 0.0	 0.0	 0.0	 0.0	 0.0	 0.0	 0.0	 0.0; % COW
	10141	 1224.0	 -265.53	 935.0	 -935.0	 1.01621	 2125.0	 1	 1870.0	 1224.0	 0.0	 0.0	 0.0	 0.0	 0.0	 0.0	 0.0	 0.0	 0.0	 0.0	 0.0; % COW
	10146	 115.2	 -44.319	 88.0	 -88.0	 1.05652	 224.0	 1	 176.0	 115.2	 0.0	 0.0	 0.0	 0.0	 0.0	 0.0	 0.0	 0.0	 0.0	 0.0	 0.0; % COW
	10150	 201.6	 -154.0	 154.0	 -154.0	 0.98988	 427.0	 1	 308.0	 201.6	 0.0	 0.0	 0.0	 0.0	 0.0	 0.0	 0.0	 0.0	 0.0	 0.0	 0.0; % COW
	10171	 84.6	 -65.0	 65.0	 -65.0	 0.99541	 715.0	 1	 129.3	 84.6	 0.0	 0.0	 0.0	 0.0	 0.0	 0.0	 0.0	 0.0	 0.0	 0.0	 0.0; % NG
	10176	 191.0	 -146.0	 146.0	 -146.0	 0.99912	 346.0	 1	 291.8	 191.0	 0.0	 0.0	 0.0	 0.0	 0.0	 0.0	 0.0	 0.0	 0.0	 0.0	 0.0; % NG
	10177	 191.0	 -146.0	 146.0	 -146.0	 0.99912	 346.0	 1	 291.8	 191.0	 0.0	 0.0	 0.0	 0.0	 0.0	 0.0	 0.0	 0.0	 0.0	 0.0	 0.0; % NG
	10186	 342.7	 30.309	 268.0	 -268.0	 1.09376	 618.0	 1	 534.6	 342.7	 0.0	 0.0	 0.0	 0.0	 0.0	 0.0	 0.0	 0.0	 0.0	 0.0	 0.0; % NG
	10187	 342.7	 30.387	 268.0	 -268.0	 1.09383	 618.0	 1	 534.6	 342.7	 0.0	 0.0	 0.0	 0.0	 0.0	 0.0	 0.0	 0.0	 0.0	 0.0	 0.0; % COW
	10188	 347.8	 -69.769	 266.0	 -266.0	 1.04585	 618.0	 1	 531.3	 347.8	 0.0	 0.0	 0.0	 0.0	 0.0	 0.0	 0.0	 0.0	 0.0	 0.0	 0.0; % COW
	10189	 283.0	 -58.615	 272.0	 -272.0	 1.04693	 620.0	 1	 542.3	 283.0	 0.0	 0.0	 0.0	 0.0	 0.0	 0.0	 0.0	 0.0	 0.0	 0.0	 0.0; % COW
	10190	 371.5	 7.146	 301.0	 -301.0	 1.04461	 683.0	 1	 600.6	 371.5	 0.0	 0.0	 0.0	 0.0	 0.0	 0.0	 0.0	 0.0	 0.0	 0.0	 0.0; % COW
	10191	 370.8	 7.191	 300.0	 -300.0	 1.04462	 682.0	 1	 599.5	 370.8	 0.0	 0.0	 0.0	 0.0	 0.0	 0.0	 0.0	 0.0	 0.0	 0.0	 0.0; % COW
	10192	 111.6	 31.142	 124.0	 -124.0	 1.05235	 281.0	 1	 247.5	 111.6	 0.0	 0.0	 0.0	 0.0	 0.0	 0.0	 0.0	 0.0	 0.0	 0.0	 0.0; % NG
	10194	 64.8	 -7.732	 72.0	 -72.0	 1.03762	 184.0	 1	 143.0	 64.8	 0.0	 0.0	 0.0	 0.0	 0.0	 0.0	 0.0	 0.0	 0.0	 0.0	 0.0; % NG
	10196	 108.0	 -20.141	 83.0	 -83.0	 1.04343	 215.0	 1	 165.0	 108.0	 0.0	 0.0	 0.0	 0.0	 0.0	 0.0	 0.0	 0.0	 0.0	 0.0	 0.0; % NG
	10223	 125.5	 63.0	 63.0	 -63.0	 1.03136	 189.0	 1	 125.5	 0.0	 0.0	 0.0	 0.0	 0.0	 0.0	 0.0	 0.0	 0.0	 0.0	 0.0	 0.0; % NG
	10225	 77.8	 130.384	 137.0	 -137.0	 1.04538	 333.0	 1	 272.8	 77.8	 0.0	 0.0	 0.0	 0.0	 0.0	 0.0	 0.0	 0.0	 0.0	 0.0	 0.0; % NG
	10226	 34.6	 71.0	 71.0	 -71.0	 1.0401	 198.0	 1	 140.8	 34.6	 0.0	 0.0	 0.0	 0.0	 0.0	 0.0	 0.0	 0.0	 0.0	 0.0	 0.0; % NG
	10227	 11.5	 -9.0	 9.0	 -9.0	 1.04886	 191.0	 1	 17.6	 11.5	 0.0	 0.0	 0.0	 0.0	 0.0	 0.0	 0.0	 0.0	 0.0	 0.0	 0.0; % NG
	10228	 18.7	 15.0	 15.0	 -15.0	 0.96266	 135.0	 1	 28.6	 18.7	 0.0	 0.0	 0.0	 0.0	 0.0	 0.0	 0.0	 0.0	 0.0	 0.0	 0.0; % NG
	10229	 39.6	 31.0	 31.0	 -31.0	 1.09245	 85.0	 1	 60.5	 39.6	 0.0	 0.0	 0.0	 0.0	 0.0	 0.0	 0.0	 0.0	 0.0	 0.0	 0.0; % NG
	10230	 0.0	 1.0	 1.0	 -1.0	 1.03414	 132.0	 1	 0.1	 0.0	 0.0	 0.0	 0.0	 0.0	 0.0	 0.0	 0.0	 0.0	 0.0	 0.0	 0.0; % NG
	10232	 11.2	 9.0	 9.0	 -9.0	 0.99234	 64.0	 1	 17.2	 11.2	 0.0	 0.0	 0.0	 0.0	 0.0	 0.0	 0.0	 0.0	 0.0	 0.0	 0.0; % PEL
	10233	 45.4	 35.0	 35.0	 -35.0	 1.03843	 79.0	 1	 69.3	 45.4	 0.0	 0.0	 0.0	 0.0	 0.0	 0.0	 0.0	 0.0	 0.0	 0.0	 0.0; % NG
	10234	 3.6	 3.0	 3.0	 -3.0	 0.95	 115.0	 1	 5.5	 3.6	 0.0	 0.0	 0.0	 0.0	 0.0	 0.0	 0.0	 0.0	 0.0	 0.0	 0.0; % NG
	10235	 28.8	 22.0	 22.0	 -22.0	 1.10541	 83.0	 1	 44.0	 28.8	 0.0	 0.0	 0.0	 0.0	 0.0	 0.0	 0.0	 0.0	 0.0	 0.0	 0.0; % NG
	10236	 119.5	 92.0	 92.0	 -92.0	 1.08644	 219.0	 1	 182.6	 119.5	 0.0	 0.0	 0.0	 0.0	 0.0	 0.0	 0.0	 0.0	 0.0	 0.0	 0.0; % NG
	10237	 50.4	 39.0	 39.0	 -39.0	 1.10447	 121.0	 1	 77.0	 50.4	 0.0	 0.0	 0.0	 0.0	 0.0	 0.0	 0.0	 0.0	 0.0	 0.0	 0.0; % NG
	10238	 61.9	 48.0	 48.0	 -48.0	 0.95805	 179.0	 1	 94.6	 61.9	 0.0	 0.0	 0.0	 0.0	 0.0	 0.0	 0.0	 0.0	 0.0	 0.0	 0.0; % NG
	10239	 62.6	 48.0	 48.0	 -48.0	 1.06461	 109.0	 1	 95.7	 62.6	 0.0	 0.0	 0.0	 0.0	 0.0	 0.0	 0.0	 0.0	 0.0	 0.0	 0.0; % NG
	10240	 0.0	 1.0	 1.0	 -1.0	 1.04357	 128.0	 1	 0.1	 0.0	 0.0	 0.0	 0.0	 0.0	 0.0	 0.0	 0.0	 0.0	 0.0	 0.0	 0.0; % NG
	10246	 146.2	 -53.375	 112.0	 -112.0	 1.03728	 262.0	 1	 223.3	 146.2	 0.0	 0.0	 0.0	 0.0	 0.0	 0.0	 0.0	 0.0	 0.0	 0.0	 0.0; % COW
	10247	 102.2	 18.195	 79.0	 -79.0	 1.09638	 215.0	 1	 156.2	 102.2	 0.0	 0.0	 0.0	 0.0	 0.0	 0.0	 0.0	 0.0	 0.0	 0.0	 0.0; % NG
	10248	 122.4	 27.268	 94.0	 -94.0	 1.11136	 241.0	 1	 187.0	 122.4	 0.0	 0.0	 0.0	 0.0	 0.0	 0.0	 0.0	 0.0	 0.0	 0.0	 0.0; % NG
	10249	 128.0	 74.001	 98.0	 -98.0	 1.03167	 225.0	 1	 195.6	 128.0	 0.0	 0.0	 0.0	 0.0	 0.0	 0.0	 0.0	 0.0	 0.0	 0.0	 0.0; % NG
	10250	 374.4	 -4.385	 286.0	 -286.0	 1.03964	 650.0	 1	 572.0	 374.4	 0.0	 0.0	 0.0	 0.0	 0.0	 0.0	 0.0	 0.0	 0.0	 0.0	 0.0; % COW
	10251	 374.4	 -5.953	 286.0	 -286.0	 1.03916	 650.0	 1	 572.0	 374.4	 0.0	 0.0	 0.0	 0.0	 0.0	 0.0	 0.0	 0.0	 0.0	 0.0	 0.0; % NG
	10252	 374.4	 -5.908	 286.0	 -286.0	 1.03915	 650.0	 1	 572.0	 374.4	 0.0	 0.0	 0.0	 0.0	 0.0	 0.0	 0.0	 0.0	 0.0	 0.0	 0.0; % COW
	10253	 187.9	 144.0	 144.0	 -144.0	 1.068	 341.0	 1	 287.1	 187.9	 0.0	 0.0	 0.0	 0.0	 0.0	 0.0	 0.0	 0.0	 0.0	 0.0	 0.0; % NG
	10254	 342.7	 -21.087	 262.0	 -262.0	 0.9983	 598.0	 1	 523.6	 342.7	 0.0	 0.0	 0.0	 0.0	 0.0	 0.0	 0.0	 0.0	 0.0	 0.0	 0.0; % COW
	10255	 121.0	 46.361	 93.0	 -93.0	 1.08055	 210.0	 1	 184.8	 121.0	 0.0	 0.0	 0.0	 0.0	 0.0	 0.0	 0.0	 0.0	 0.0	 0.0	 0.0; % NG
	10256	 280.8	 25.148	 215.0	 -215.0	 1.09671	 489.0	 1	 429.0	 280.8	 0.0	 0.0	 0.0	 0.0	 0.0	 0.0	 0.0	 0.0	 0.0	 0.0	 0.0; % NG
	10257	 205.181	 14.035	 108.0	 -108.0	 1.09568	 250.0	 1	 214.5	 140.4	 0.0	 0.0	 0.0	 0.0	 0.0	 0.0	 0.0	 0.0	 0.0	 0.0	 0.0; % COW
	10258	 129.6	 -19.226	 99.0	 -99.0	 1.08658	 230.0	 1	 198.0	 129.6	 0.0	 0.0	 0.0	 0.0	 0.0	 0.0	 0.0	 0.0	 0.0	 0.0	 0.0; % NG
	10259	 283.7	 -4.87	 217.0	 -217.0	 0.96936	 519.0	 1	 433.4	 283.7	 0.0	 0.0	 0.0	 0.0	 0.0	 0.0	 0.0	 0.0	 0.0	 0.0	 0.0; % COW
	10260	 425.5	 -9.632	 326.0	 -326.0	 1.09604	 741.0	 1	 650.1	 425.5	 0.0	 0.0	 0.0	 0.0	 0.0	 0.0	 0.0	 0.0	 0.0	 0.0	 0.0; % COW
	10261	 579.6	 99.16	 476.0	 -476.0	 1.00569	 1100.0	 1	 951.5	 579.6	 0.0	 0.0	 0.0	 0.0	 0.0	 0.0	 0.0	 0.0	 0.0	 0.0	 0.0; % COW
	10262	 579.6	 97.936	 476.0	 -476.0	 1.00556	 1100.0	 1	 951.5	 579.6	 0.0	 0.0	 0.0	 0.0	 0.0	 0.0	 0.0	 0.0	 0.0	 0.0	 0.0; % NG
	10263	 67.7	 19.84	 52.0	 -52.0	 1.12	 121.0	 1	 103.4	 67.7	 0.0	 0.0	 0.0	 0.0	 0.0	 0.0	 0.0	 0.0	 0.0	 0.0	 0.0; % NG
	10264	 280.8	 -34.835	 215.0	 -215.0	 0.98816	 489.0	 1	 429.0	 280.8	 0.0	 0.0	 0.0	 0.0	 0.0	 0.0	 0.0	 0.0	 0.0	 0.0	 0.0; % NG
	10265	 280.8	 -39.842	 215.0	 -215.0	 1.08667	 496.0	 1	 429.0	 280.8	 0.0	 0.0	 0.0	 0.0	 0.0	 0.0	 0.0	 0.0	 0.0	 0.0	 0.0; % NG
	10266	 3.6	 3.0	 3.0	 -3.0	 1.04357	 72.0	 1	 5.5	 3.6	 0.0	 0.0	 0.0	 0.0	 0.0	 0.0	 0.0	 0.0	 0.0	 0.0	 0.0; % COW
	10267	 4.3	 -0.887	 4.0	 -4.0	 1.04377	 120.0	 1	 6.6	 4.3	 0.0	 0.0	 0.0	 0.0	 0.0	 0.0	 0.0	 0.0	 0.0	 0.0	 0.0; % NG
	10268	 20.9	 16.0	 16.0	 -16.0	 1.06514	 37.0	 1	 31.9	 20.9	 0.0	 0.0	 0.0	 0.0	 0.0	 0.0	 0.0	 0.0	 0.0	 0.0	 0.0; % PEL
	10269	 68.4	 133.0	 146.0	 -146.0	 1.09387	 338.0	 1	 291.5	 68.4	 0.0	 0.0	 0.0	 0.0	 0.0	 0.0	 0.0	 0.0	 0.0	 0.0	 0.0; % NG
	10270	 0.0	 1.0	 1.0	 -1.0	 0.99386	 40.0	 1	 0.1	 0.0	 0.0	 0.0	 0.0	 0.0	 0.0	 0.0	 0.0	 0.0	 0.0	 0.0	 0.0; % NG
	10271	 156.2	 120.0	 120.0	 -120.0	 1.08017	 286.0	 1	 238.7	 156.2	 0.0	 0.0	 0.0	 0.0	 0.0	 0.0	 0.0	 0.0	 0.0	 0.0	 0.0; % NG
	10272	 24.5	 19.0	 19.0	 -19.0	 1.09087	 116.0	 1	 37.4	 24.5	 0.0	 0.0	 0.0	 0.0	 0.0	 0.0	 0.0	 0.0	 0.0	 0.0	 0.0; % NG
	10273	 165.6	 127.0	 127.0	 -127.0	 1.01108	 321.0	 1	 253.0	 165.6	 0.0	 0.0	 0.0	 0.0	 0.0	 0.0	 0.0	 0.0	 0.0	 0.0	 0.0; % NG
	10274	 61.2	 71.208	 113.0	 -113.0	 1.02468	 317.0	 1	 225.5	 61.2	 0.0	 0.0	 0.0	 0.0	 0.0	 0.0	 0.0	 0.0	 0.0	 0.0	 0.0; % COW
	10275	 21.6	 -49.212	 55.0	 -55.0	 1.00285	 125.0	 1	 110.0	 21.6	 0.0	 0.0	 0.0	 0.0	 0.0	 0.0	 0.0	 0.0	 0.0	 0.0	 0.0; % NG
	10276	 107.3	 33.805	 82.0	 -82.0	 1.07162	 189.0	 1	 163.9	 107.3	 0.0	 0.0	 0.0	 0.0	 0.0	 0.0	 0.0	 0.0	 0.0	 0.0	 0.0; % NG
	10277	 80.6	 62.0	 62.0	 -62.0	 1.0573	 225.0	 1	 123.2	 80.6	 0.0	 0.0	 0.0	 0.0	 0.0	 0.0	 0.0	 0.0	 0.0	 0.0	 0.0; % COW
	10278	 129.6	 3.816	 99.0	 -99.0	 1.12	 233.0	 1	 198.0	 129.6	 0.0	 0.0	 0.0	 0.0	 0.0	 0.0	 0.0	 0.0	 0.0	 0.0	 0.0; % NG
	10279	 129.6	 3.816	 99.0	 -99.0	 1.12	 233.0	 1	 198.0	 129.6	 0.0	 0.0	 0.0	 0.0	 0.0	 0.0	 0.0	 0.0	 0.0	 0.0	 0.0; % NG
	10281	 2.9	 3.0	 3.0	 -3.0	 1.08058	 20.0	 1	 4.4	 2.9	 0.0	 0.0	 0.0	 0.0	 0.0	 0.0	 0.0	 0.0	 0.0	 0.0	 0.0; % PEL
	10282	 58.3	 144.0	 144.0	 -144.0	 1.07323	 357.0	 1	 287.1	 58.3	 0.0	 0.0	 0.0	 0.0	 0.0	 0.0	 0.0	 0.0	 0.0	 0.0	 0.0; % NG
	10284	 418.3	 284.398	 386.0	 -386.0	 1.12	 919.0	 1	 771.1	 418.3	 0.0	 0.0	 0.0	 0.0	 0.0	 0.0	 0.0	 0.0	 0.0	 0.0	 0.0; % COW
	10285	 0.0	 -1.0	 1.0	 -1.0	 1.06309	 132.0	 1	 0.1	 0.0	 0.0	 0.0	 0.0	 0.0	 0.0	 0.0	 0.0	 0.0	 0.0	 0.0	 0.0; % PEL
	10288	 20.9	 16.0	 16.0	 -16.0	 1.0508	 63.0	 1	 31.9	 20.9	 0.0	 0.0	 0.0	 0.0	 0.0	 0.0	 0.0	 0.0	 0.0	 0.0	 0.0; % NG
	10289	 0.7	 11.853	 18.0	 -18.0	 1.06876	 41.0	 1	 34.1	 0.7	 0.0	 0.0	 0.0	 0.0	 0.0	 0.0	 0.0	 0.0	 0.0	 0.0	 0.0; % NG
	10290	 28.1	 22.0	 22.0	 -22.0	 1.0717	 49.0	 1	 42.9	 28.1	 0.0	 0.0	 0.0	 0.0	 0.0	 0.0	 0.0	 0.0	 0.0	 0.0	 0.0; % NG
	10291	 5.8	 5.0	 5.0	 -5.0	 1.04153	 71.0	 1	 8.8	 5.8	 0.0	 0.0	 0.0	 0.0	 0.0	 0.0	 0.0	 0.0	 0.0	 0.0	 0.0; % NG
	10292	 312.5	 234.497	 239.0	 -239.0	 1.12	 638.0	 1	 477.4	 312.5	 0.0	 0.0	 0.0	 0.0	 0.0	 0.0	 0.0	 0.0	 0.0	 0.0	 0.0; % COW
	10293	 19.4	 15.0	 15.0	 -15.0	 1.09256	 46.0	 1	 29.7	 19.4	 0.0	 0.0	 0.0	 0.0	 0.0	 0.0	 0.0	 0.0	 0.0	 0.0	 0.0; % NG
	10294	 7.9	 7.0	 7.0	 -7.0	 1.08233	 74.0	 1	 12.1	 7.9	 0.0	 0.0	 0.0	 0.0	 0.0	 0.0	 0.0	 0.0	 0.0	 0.0	 0.0; % NG
	10295	 232.1	 110.759	 117.0	 -117.0	 0.97263	 299.0	 1	 232.1	 151.9	 0.0	 0.0	 0.0	 0.0	 0.0	 0.0	 0.0	 0.0	 0.0	 0.0	 0.0; % NG
	10296	 197.3	 151.0	 151.0	 -151.0	 1.10938	 461.0	 1	 301.4	 197.3	 0.0	 0.0	 0.0	 0.0	 0.0	 0.0	 0.0	 0.0	 0.0	 0.0	 0.0; % NG
	24	 110.004	 92.137	 111.0	 -49.0	 1.07793	 235.3	 1	 221.0	 110.0	 0.0	 0.0	 0.0	 0.0	 0.0	 0.0	 0.0	 0.0	 0.0	 0.0	 0.0; % COW
	25	 167.096	 -10.028	 100.0	 -22.0	 1.07787	 235.3	 1	 200.0	 135.0	 0.0	 0.0	 0.0	 0.0	 0.0	 0.0	 0.0	 0.0	 0.0	 0.0	 0.0; % NG
	37	 370.0	 77.988	 185.0	 -19.0	 1.11	 426.0	 1	 370.0	 240.0	 0.0	 0.0	 0.0	 0.0	 0.0	 0.0	 0.0	 0.0	 0.0	 0.0	 0.0; % NG
	37	 370.0	 77.988	 185.0	 -19.0	 1.11	 426.0	 1	 370.0	 240.0	 0.0	 0.0	 0.0	 0.0	 0.0	 0.0	 0.0	 0.0	 0.0	 0.0	 0.0; % NG
	38	 370.0	 15.947	 185.0	 -19.0	 1.11	 426.0	 1	 370.0	 240.0	 0.0	 0.0	 0.0	 0.0	 0.0	 0.0	 0.0	 0.0	 0.0	 0.0	 0.0; % NG
	38	 370.0	 15.947	 185.0	 -19.0	 1.11	 426.0	 1	 370.0	 240.0	 0.0	 0.0	 0.0	 0.0	 0.0	 0.0	 0.0	 0.0	 0.0	 0.0	 0.0; % NG
	39	 370.0	 102.366	 185.0	 -19.0	 1.11	 426.0	 1	 370.0	 240.0	 0.0	 0.0	 0.0	 0.0	 0.0	 0.0	 0.0	 0.0	 0.0	 0.0	 0.0; % NG
	40	 370.0	 90.399	 185.0	 -19.0	 1.04938	 426.0	 1	 370.0	 240.0	 0.0	 0.0	 0.0	 0.0	 0.0	 0.0	 0.0	 0.0	 0.0	 0.0	 0.0; % COW
	40	 370.0	 90.399	 185.0	 -19.0	 1.04938	 426.0	 1	 370.0	 240.0	 0.0	 0.0	 0.0	 0.0	 0.0	 0.0	 0.0	 0.0	 0.0	 0.0	 0.0; % NG
	40	 370.0	 90.399	 185.0	 -19.0	 1.04938	 426.0	 1	 370.0	 240.0	 0.0	 0.0	 0.0	 0.0	 0.0	 0.0	 0.0	 0.0	 0.0	 0.0	 0.0; % NG
	41	 370.0	 -18.987	 185.0	 -19.0	 1.0493	 426.0	 1	 370.0	 240.0	 0.0	 0.0	 0.0	 0.0	 0.0	 0.0	 0.0	 0.0	 0.0	 0.0	 0.0; % NG
	41	 370.0	 -18.987	 185.0	 -19.0	 1.0493	 426.0	 1	 370.0	 240.0	 0.0	 0.0	 0.0	 0.0	 0.0	 0.0	 0.0	 0.0	 0.0	 0.0	 0.0; % COW
	41	 370.0	 -18.987	 185.0	 -19.0	 1.0493	 426.0	 1	 370.0	 240.0	 0.0	 0.0	 0.0	 0.0	 0.0	 0.0	 0.0	 0.0	 0.0	 0.0	 0.0; % COW
	57	 110.0	 88.218	 108.0	 -33.0	 1.10999	 235.0	 1	 215.0	 110.0	 0.0	 0.0	 0.0	 0.0	 0.0	 0.0	 0.0	 0.0	 0.0	 0.0	 0.0; % NG
	57	 125.0	 90.167	 110.0	 -33.0	 1.10999	 235.0	 1	 220.0	 125.0	 0.0	 0.0	 0.0	 0.0	 0.0	 0.0	 0.0	 0.0	 0.0	 0.0	 0.0; % NG
	58	 125.0	 88.007	 113.0	 -33.0	 1.10988	 235.0	 1	 225.0	 125.0	 0.0	 0.0	 0.0	 0.0	 0.0	 0.0	 0.0	 0.0	 0.0	 0.0	 0.0; % PEL
	58	 0.0	 0.0	 113.0	 -33.0	 1.10988	 235.0	 0	 225.0	 120.0	 0.0	 0.0	 0.0	 0.0	 0.0	 0.0	 0.0	 0.0	 0.0	 0.0	 0.0; % COW
	58	 110.0	 88.007	 113.0	 -33.0	 1.10988	 235.0	 1	 225.0	 110.0	 0.0	 0.0	 0.0	 0.0	 0.0	 0.0	 0.0	 0.0	 0.0	 0.0	 0.0; % NG
	59	 224.692	 112.998	 113.0	 -33.0	 1.11	 235.0	 1	 225.0	 110.0	 0.0	 0.0	 0.0	 0.0	 0.0	 0.0	 0.0	 0.0	 0.0	 0.0	 0.0; % NG
	60	 534.997	 198.979	 268.0	 -47.0	 1.05	 588.0	 1	 535.0	 255.0	 0.0	 0.0	 0.0	 0.0	 0.0	 0.0	 0.0	 0.0	 0.0	 0.0	 0.0; % COW
	61	 469.888	 16.214	 280.0	 -100.0	 1.05	 588.0	 1	 560.0	 250.0	 0.0	 0.0	 0.0	 0.0	 0.0	 0.0	 0.0	 0.0	 0.0	 0.0	 0.0; % COW
	70	 129.0	 -8.127	 105.0	 -11.0	 1.10419	 235.0	 1	 225.0	 129.0	 0.0	 0.0	 0.0	 0.0	 0.0	 0.0	 0.0	 0.0	 0.0	 0.0	 0.0; % NG
	71	 129.0	 28.885	 105.0	 -11.0	 1.10414	 235.0	 1	 225.0	 129.0	 0.0	 0.0	 0.0	 0.0	 0.0	 0.0	 0.0	 0.0	 0.0	 0.0	 0.0; % NG
	71	 0.0	 0.0	 99.0	 -10.0	 1.10414	 235.0	 0	 225.0	 129.0	 0.0	 0.0	 0.0	 0.0	 0.0	 0.0	 0.0	 0.0	 0.0	 0.0	 0.0; % NG
	72	 0.0	 0.0	 105.0	 -11.0	 1.04256	 235.0	 0	 225.0	 129.0	 0.0	 0.0	 0.0	 0.0	 0.0	 0.0	 0.0	 0.0	 0.0	 0.0	 0.0; % NG
	72	 129.0	 -11.0	 105.0	 -11.0	 1.04256	 235.0	 1	 225.0	 129.0	 0.0	 0.0	 0.0	 0.0	 0.0	 0.0	 0.0	 0.0	 0.0	 0.0	 0.0; % NG
	73	 129.0	 -10.0	 99.0	 -10.0	 1.04259	 235.0	 1	 225.0	 129.0	 0.0	 0.0	 0.0	 0.0	 0.0	 0.0	 0.0	 0.0	 0.0	 0.0	 0.0; % NG
	73	 129.0	 -11.0	 105.0	 -11.0	 1.04259	 235.0	 1	 225.0	 129.0	 0.0	 0.0	 0.0	 0.0	 0.0	 0.0	 0.0	 0.0	 0.0	 0.0	 0.0; % NG
	74	 112.0	 56.0	 56.0	 0.0	 1.10379	 120.0	 1	 112.0	 0.0	 0.0	 0.0	 0.0	 0.0	 0.0	 0.0	 0.0	 0.0	 0.0	 0.0	 0.0; % NG
	94	 220.0	 110.0	 110.0	 -6.0	 1.10609	 270.6	 1	 220.0	 125.0	 0.0	 0.0	 0.0	 0.0	 0.0	 0.0	 0.0	 0.0	 0.0	 0.0	 0.0; % NG
	94	 225.0	 113.0	 113.0	 -6.0	 1.10609	 270.6	 1	 225.0	 140.0	 0.0	 0.0	 0.0	 0.0	 0.0	 0.0	 0.0	 0.0	 0.0	 0.0	 0.0; % NG
	95	 225.0	 97.316	 113.0	 -6.0	 1.11	 270.6	 1	 225.0	 130.0	 0.0	 0.0	 0.0	 0.0	 0.0	 0.0	 0.0	 0.0	 0.0	 0.0	 0.0; % NG
	95	 225.0	 97.316	 113.0	 -6.0	 1.11	 270.6	 1	 225.0	 125.0	 0.0	 0.0	 0.0	 0.0	 0.0	 0.0	 0.0	 0.0	 0.0	 0.0	 0.0; % NG
	95	 225.0	 97.316	 113.0	 -6.0	 1.11	 270.6	 1	 225.0	 130.0	 0.0	 0.0	 0.0	 0.0	 0.0	 0.0	 0.0	 0.0	 0.0	 0.0	 0.0; % NG
	98	 220.0	 27.709	 192.0	 -31.0	 1.0441	 426.0	 1	 383.0	 220.0	 0.0	 0.0	 0.0	 0.0	 0.0	 0.0	 0.0	 0.0	 0.0	 0.0	 0.0; % NG
	98	 220.0	 17.157	 119.0	 -31.0	 1.0441	 435.3	 1	 380.0	 220.0	 0.0	 0.0	 0.0	 0.0	 0.0	 0.0	 0.0	 0.0	 0.0	 0.0	 0.0; % NG
	115	 12.0	 0.0	 0.0	 0.0	 1.10054	 12.0	 1	 12.0	 0.0	 0.0	 0.0	 0.0	 0.0	 0.0	 0.0	 0.0	 0.0	 0.0	 0.0	 0.0; % NG
	115	 6.0	 0.0	 0.0	 0.0	 1.10054	 6.0	 1	 6.0	 0.0	 0.0	 0.0	 0.0	 0.0	 0.0	 0.0	 0.0	 0.0	 0.0	 0.0	 0.0; % PEL
	121	 0.0	 0.0	 113.0	 -10.0	 1.10994	 270.6	 0	 225.0	 120.0	 0.0	 0.0	 0.0	 0.0	 0.0	 0.0	 0.0	 0.0	 0.0	 0.0	 0.0; % NG
	122	 225.0	 89.164	 113.0	 -10.0	 1.11	 270.6	 1	 225.0	 120.0	 0.0	 0.0	 0.0	 0.0	 0.0	 0.0	 0.0	 0.0	 0.0	 0.0	 0.0; % NG
	123	 120.0	 59.993	 60.0	 -1.0	 1.10994	 150.0	 1	 120.0	 70.0	 0.0	 0.0	 0.0	 0.0	 0.0	 0.0	 0.0	 0.0	 0.0	 0.0	 0.0; % NG
	124	 120.0	 36.089	 60.0	 -1.0	 1.11	 150.0	 1	 120.0	 70.0	 0.0	 0.0	 0.0	 0.0	 0.0	 0.0	 0.0	 0.0	 0.0	 0.0	 0.0; % NG
	134	 0.0	 0.0	 60.0	 0.0	 1.10335	 150.0	 0	 120.0	 70.0	 0.0	 0.0	 0.0	 0.0	 0.0	 0.0	 0.0	 0.0	 0.0	 0.0	 0.0; % NG
	135	 120.0	 60.0	 60.0	 0.0	 1.10328	 150.0	 1	 120.0	 70.0	 0.0	 0.0	 0.0	 0.0	 0.0	 0.0	 0.0	 0.0	 0.0	 0.0	 0.0; % COW
	136	 80.0	 31.0	 31.0	 0.0	 1.08331	 117.5	 1	 110.0	 80.0	 0.0	 0.0	 0.0	 0.0	 0.0	 0.0	 0.0	 0.0	 0.0	 0.0	 0.0; % COW
	144	 215.0	 85.153	 108.0	 -35.0	 1.11	 270.6	 1	 215.0	 135.0	 0.0	 0.0	 0.0	 0.0	 0.0	 0.0	 0.0	 0.0	 0.0	 0.0	 0.0; % NG
	145	 215.0	 37.542	 108.0	 -35.0	 1.11	 270.6	 1	 215.0	 135.0	 0.0	 0.0	 0.0	 0.0	 0.0	 0.0	 0.0	 0.0	 0.0	 0.0	 0.0; % COW
	145	 225.0	 40.116	 113.0	 -35.0	 1.11	 270.6	 1	 225.0	 135.0	 0.0	 0.0	 0.0	 0.0	 0.0	 0.0	 0.0	 0.0	 0.0	 0.0	 0.0; % NG
	146	 225.0	 -36.0	 113.0	 -36.0	 1.03712	 270.6	 1	 225.0	 135.0	 0.0	 0.0	 0.0	 0.0	 0.0	 0.0	 0.0	 0.0	 0.0	 0.0	 0.0; % NG
	146	 220.0	 -36.0	 110.0	 -36.0	 1.03712	 270.6	 1	 220.0	 135.0	 0.0	 0.0	 0.0	 0.0	 0.0	 0.0	 0.0	 0.0	 0.0	 0.0	 0.0; % NG
	152	 0.0	 0.0	 68.0	 -29.0	 1.07251	 150.0	 0	 135.0	 -135.0	 0.0	 0.0	 0.0	 0.0	 0.0	 0.0	 0.0	 0.0	 0.0	 0.0	 0.0; % NG
	152	 0.0	 0.0	 68.0	 -29.0	 1.07251	 150.0	 0	 135.0	 -135.0	 0.0	 0.0	 0.0	 0.0	 0.0	 0.0	 0.0	 0.0	 0.0	 0.0	 0.0; % NG
	153	 0.0	 0.0	 68.0	 -29.0	 1.07225	 150.0	 0	 135.0	 -135.0	 0.0	 0.0	 0.0	 0.0	 0.0	 0.0	 0.0	 0.0	 0.0	 0.0	 0.0; % NG
	153	 0.0	 0.0	 68.0	 -29.0	 1.07225	 150.0	 0	 135.0	 -135.0	 0.0	 0.0	 0.0	 0.0	 0.0	 0.0	 0.0	 0.0	 0.0	 0.0	 0.0; % NG
	154	 120.0	 60.0	 60.0	 -15.0	 1.07933	 150.0	 1	 120.0	 94.0	 0.0	 0.0	 0.0	 0.0	 0.0	 0.0	 0.0	 0.0	 0.0	 0.0	 0.0; % COW
	155	 120.0	 60.0	 60.0	 -15.0	 1.07929	 150.0	 1	 120.0	 94.0	 0.0	 0.0	 0.0	 0.0	 0.0	 0.0	 0.0	 0.0	 0.0	 0.0	 0.0; % NG
	155	 0.0	 0.0	 60.0	 -15.0	 1.07929	 150.0	 0	 120.0	 94.0	 0.0	 0.0	 0.0	 0.0	 0.0	 0.0	 0.0	 0.0	 0.0	 0.0	 0.0; % NG
	169	 0.0	 0.0	 25.0	 0.0	 1.06985	 51.4	 0	 50.0	 40.0	 0.0	 0.0	 0.0	 0.0	 0.0	 0.0	 0.0	 0.0	 0.0	 0.0	 0.0; % NG
	170	 0.0	 0.0	 60.0	 -15.0	 1.06983	 150.0	 0	 120.0	 80.0	 0.0	 0.0	 0.0	 0.0	 0.0	 0.0	 0.0	 0.0	 0.0	 0.0	 0.0; % NG
	170	 0.0	 0.0	 25.0	 0.0	 1.06983	 51.4	 0	 50.0	 45.0	 0.0	 0.0	 0.0	 0.0	 0.0	 0.0	 0.0	 0.0	 0.0	 0.0	 0.0; % NG
	172	 232.0	 116.0	 116.0	 -31.0	 1.04147	 252.4	 1	 232.0	 100.0	 0.0	 0.0	 0.0	 0.0	 0.0	 0.0	 0.0	 0.0	 0.0	 0.0	 0.0; % NG
	172	 0.0	 0.0	 103.0	 -21.0	 1.04147	 237.5	 0	 205.0	 135.0	 0.0	 0.0	 0.0	 0.0	 0.0	 0.0	 0.0	 0.0	 0.0	 0.0	 0.0; % NG
	173	 0.0	 0.0	 103.0	 -21.0	 1.04153	 237.5	 0	 205.0	 135.0	 0.0	 0.0	 0.0	 0.0	 0.0	 0.0	 0.0	 0.0	 0.0	 0.0	 0.0; % NG
	173	 0.0	 0.0	 102.0	 -15.0	 1.04153	 252.4	 0	 222.0	 90.0	 0.0	 0.0	 0.0	 0.0	 0.0	 0.0	 0.0	 0.0	 0.0	 0.0	 0.0; % NG
	174	 182.462	 102.0	 102.0	 -15.0	 1.0324	 252.4	 1	 222.0	 90.0	 0.0	 0.0	 0.0	 0.0	 0.0	 0.0	 0.0	 0.0	 0.0	 0.0	 0.0; % COW
	175	 90.03	 102.0	 102.0	 -15.0	 1.03242	 252.4	 1	 222.0	 90.0	 0.0	 0.0	 0.0	 0.0	 0.0	 0.0	 0.0	 0.0	 0.0	 0.0	 0.0; % NG
	175	 100.03	 93.0	 93.0	 -10.0	 1.03242	 252.4	 1	 232.0	 100.0	 0.0	 0.0	 0.0	 0.0	 0.0	 0.0	 0.0	 0.0	 0.0	 0.0	 0.0; % NG
	180	 261.0	 110.65	 127.0	 -35.0	 1.11	 287.3	 1	 261.0	 104.0	 0.0	 0.0	 0.0	 0.0	 0.0	 0.0	 0.0	 0.0	 0.0	 0.0	 0.0; % NG
	180	 261.0	 110.65	 127.0	 -35.0	 1.11	 287.3	 1	 261.0	 104.0	 0.0	 0.0	 0.0	 0.0	 0.0	 0.0	 0.0	 0.0	 0.0	 0.0	 0.0; % NG
	181	 206.0	 102.999	 103.0	 -17.0	 1.10998	 238.4	 1	 206.0	 120.0	 0.0	 0.0	 0.0	 0.0	 0.0	 0.0	 0.0	 0.0	 0.0	 0.0	 0.0; % NG
	181	 261.0	 126.999	 127.0	 -35.0	 1.10998	 287.3	 1	 261.0	 104.0	 0.0	 0.0	 0.0	 0.0	 0.0	 0.0	 0.0	 0.0	 0.0	 0.0	 0.0; % NG
	182	 217.559	 23.593	 118.0	 -38.0	 1.11	 263.9	 1	 235.0	 94.0	 0.0	 0.0	 0.0	 0.0	 0.0	 0.0	 0.0	 0.0	 0.0	 0.0	 0.0; % NG
	182	 217.559	 23.593	 118.0	 -38.0	 1.11	 263.9	 1	 235.0	 94.0	 0.0	 0.0	 0.0	 0.0	 0.0	 0.0	 0.0	 0.0	 0.0	 0.0	 0.0; % NG
	183	 120.0	 103.0	 103.0	 -17.0	 1.04884	 238.4	 1	 206.0	 120.0	 0.0	 0.0	 0.0	 0.0	 0.0	 0.0	 0.0	 0.0	 0.0	 0.0	 0.0; % NG
	183	 120.0	 103.0	 103.0	 -17.0	 1.04884	 238.4	 1	 206.0	 120.0	 0.0	 0.0	 0.0	 0.0	 0.0	 0.0	 0.0	 0.0	 0.0	 0.0	 0.0; % NG
	191	 200.0	 100.0	 100.0	 -23.0	 1.07139	 233.2	 1	 200.0	 150.0	 0.0	 0.0	 0.0	 0.0	 0.0	 0.0	 0.0	 0.0	 0.0	 0.0	 0.0; % NG
	192	 200.0	 100.0	 100.0	 -23.0	 1.07114	 233.2	 1	 200.0	 150.0	 0.0	 0.0	 0.0	 0.0	 0.0	 0.0	 0.0	 0.0	 0.0	 0.0	 0.0; % NG
	192	 0.0	 0.0	 100.0	 -23.0	 1.07114	 233.2	 0	 200.0	 145.0	 0.0	 0.0	 0.0	 0.0	 0.0	 0.0	 0.0	 0.0	 0.0	 0.0	 0.0; % COW
	192	 0.0	 0.0	 100.0	 -23.0	 1.07114	 233.2	 0	 200.0	 145.0	 0.0	 0.0	 0.0	 0.0	 0.0	 0.0	 0.0	 0.0	 0.0	 0.0	 0.0; % NG
	193	 464.0	 232.0	 232.0	 -232.0	 1.00626	 464.0	 1	 464.0	 208.0	 0.0	 0.0	 0.0	 0.0	 0.0	 0.0	 0.0	 0.0	 0.0	 0.0	 0.0; % NG
	208	 188.0	 94.0	 94.0	 0.0	 1.05315	 218.3	 1	 188.0	 76.0	 0.0	 0.0	 0.0	 0.0	 0.0	 0.0	 0.0	 0.0	 0.0	 0.0	 0.0; % NG
	240	 179.0	 -60.799	 90.0	 -62.0	 1.03008	 209.0	 1	 179.0	 -200.0	 0.0	 0.0	 0.0	 0.0	 0.0	 0.0	 0.0	 0.0	 0.0	 0.0	 0.0; % NG
	240	 179.0	 -60.799	 90.0	 -62.0	 1.03008	 209.0	 1	 179.0	 -200.0	 0.0	 0.0	 0.0	 0.0	 0.0	 0.0	 0.0	 0.0	 0.0	 0.0	 0.0; % NG
	240	 0.0	 0.0	 90.0	 -90.0	 1.03008	 209.0	 0	 179.0	 -200.0	 0.0	 0.0	 0.0	 0.0	 0.0	 0.0	 0.0	 0.0	 0.0	 0.0	 0.0; % NG
	241	 179.0	 22.596	 90.0	 -90.0	 1.0301	 209.0	 1	 179.0	 -200.0	 0.0	 0.0	 0.0	 0.0	 0.0	 0.0	 0.0	 0.0	 0.0	 0.0	 0.0; % COW
	244	 220.0	 12.547	 100.0	 0.0	 1.11	 177.1	 1	 220.0	 112.5	 0.0	 0.0	 0.0	 0.0	 0.0	 0.0	 0.0	 0.0	 0.0	 0.0	 0.0; % NG
	254	 43.82	 20.0	 20.0	 0.0	 1.08324	 78.8	 1	 55.0	 23.0	 0.0	 0.0	 0.0	 0.0	 0.0	 0.0	 0.0	 0.0	 0.0	 0.0	 0.0; % NG
	254	 40.544	 20.0	 20.0	 0.0	 1.08324	 68.8	 1	 50.0	 25.0	 0.0	 0.0	 0.0	 0.0	 0.0	 0.0	 0.0	 0.0	 0.0	 0.0	 0.0; % NG
	254	 40.544	 20.0	 20.0	 0.0	 1.08324	 68.8	 1	 50.0	 25.0	 0.0	 0.0	 0.0	 0.0	 0.0	 0.0	 0.0	 0.0	 0.0	 0.0	 0.0; % NG
	254	 16.291	 12.0	 12.0	 0.0	 1.08324	 27.6	 1	 23.0	 7.0	 0.0	 0.0	 0.0	 0.0	 0.0	 0.0	 0.0	 0.0	 0.0	 0.0	 0.0; % COW
	267	 2.1	 1.0	 1.0	 0.0	 1.05729	 0.7	 1	 2.1	 0.5	 0.0	 0.0	 0.0	 0.0	 0.0	 0.0	 0.0	 0.0	 0.0	 0.0	 0.0; % PEL
	268	 2.1	 1.0	 1.0	 0.0	 1.07402	 0.7	 1	 2.1	 0.5	 0.0	 0.0	 0.0	 0.0	 0.0	 0.0	 0.0	 0.0	 0.0	 0.0	 0.0; % PEL
	278	 0.0	 0.0	 4.0	 0.0	 1.11206	 10.3	 0	 7.2	 5.9	 0.0	 0.0	 0.0	 0.0	 0.0	 0.0	 0.0	 0.0	 0.0	 0.0	 0.0; % COW
	279	 0.0	 0.0	 4.0	 0.0	 1.11989	 10.3	 0	 7.2	 5.9	 0.0	 0.0	 0.0	 0.0	 0.0	 0.0	 0.0	 0.0	 0.0	 0.0	 0.0; % PEL
	295	 5.0	 3.0	 3.0	 0.0	 1.07499	 5.0	 1	 5.0	 1.0	 0.0	 0.0	 0.0	 0.0	 0.0	 0.0	 0.0	 0.0	 0.0	 0.0	 0.0; % NG
	295	 5.0	 3.0	 3.0	 0.0	 1.07499	 5.0	 1	 5.0	 1.0	 0.0	 0.0	 0.0	 0.0	 0.0	 0.0	 0.0	 0.0	 0.0	 0.0	 0.0; % NG
	295	 5.0	 3.0	 3.0	 0.0	 1.07499	 5.0	 1	 5.0	 1.0	 0.0	 0.0	 0.0	 0.0	 0.0	 0.0	 0.0	 0.0	 0.0	 0.0	 0.0; % NG
	295	 5.0	 3.0	 3.0	 0.0	 1.07499	 5.0	 1	 5.0	 1.0	 0.0	 0.0	 0.0	 0.0	 0.0	 0.0	 0.0	 0.0	 0.0	 0.0	 0.0; % NG
	310	 370.0	 185.0	 185.0	 -19.0	 0.99994	 426.0	 1	 370.0	 240.0	 0.0	 0.0	 0.0	 0.0	 0.0	 0.0	 0.0	 0.0	 0.0	 0.0	 0.0; % NG
	316	 0.0	 0.0	 2.0	 0.0	 1.04696	 4.0	 0	 5.7	 1.0	 0.0	 0.0	 0.0	 0.0	 0.0	 0.0	 0.0	 0.0	 0.0	 0.0	 0.0; % PEL
	316	 0.0	 0.0	 2.0	 0.0	 1.04696	 4.0	 0	 5.7	 1.0	 0.0	 0.0	 0.0	 0.0	 0.0	 0.0	 0.0	 0.0	 0.0	 0.0	 0.0; % NG
	376	 6.6	 4.0	 4.0	 0.0	 1.08332	 8.4	 1	 6.6	 5.4	 0.0	 0.0	 0.0	 0.0	 0.0	 0.0	 0.0	 0.0	 0.0	 0.0	 0.0; % NG
	379	 0.9	 1.0	 1.0	 0.0	 1.10775	 0.9	 1	 0.9	 0.3	 0.0	 0.0	 0.0	 0.0	 0.0	 0.0	 0.0	 0.0	 0.0	 0.0	 0.0; % PEL
	379	 0.9	 1.0	 1.0	 0.0	 1.10775	 0.9	 1	 0.9	 0.3	 0.0	 0.0	 0.0	 0.0	 0.0	 0.0	 0.0	 0.0	 0.0	 0.0	 0.0; % PEL
	379	 0.9	 1.0	 1.0	 0.0	 1.10775	 0.9	 1	 0.9	 0.3	 0.0	 0.0	 0.0	 0.0	 0.0	 0.0	 0.0	 0.0	 0.0	 0.0	 0.0; % PEL
	383	 27.0	 7.0	 7.0	 0.0	 1.10687	 31.3	 1	 27.0	 11.0	 0.0	 0.0	 0.0	 0.0	 0.0	 0.0	 0.0	 0.0	 0.0	 0.0	 0.0; % PEL
...
];

%% generator cost data
%	2	startup	shutdown	n	c(n-1)	...	c0
mpc.gencost = [
	2	 0.0	 0.0	 3	   0.000000	 198.860000	   0.000000; % COW
	2	 0.0	 0.0	 3	   0.000000	 240.260000	   0.000000; % NG
	2	 0.0	 0.0	 3	   0.000000	 240.260000	   0.000000; % NG
	2	 0.0	 0.0	 3	   0.000000	 240.260000	   0.000000; % NG
	2	 0.0	 0.0	 3	   0.000000	 240.260000	   0.000000; % COW
	2	 0.0	 0.0	 3	   0.000000	 240.260000	   0.000000; % COW
	2	 0.0	 0.0	 3	   0.000000	 240.260000	   0.000000; % NUC
	2	 0.0	 0.0	 3	   0.000000	 240.260000	   0.000000; % COW
	2	 0.0	 0.0	 3	   0.000000	 240.260000	   0.000000; % COW
	2	 0.0	 0.0	 3	   0.000000	 240.260000	   0.000000; % NG
	2	 0.0	 0.0	 3	   0.000000	 240.260000	   0.000000; % COW
	2	 0.0	 0.0	 3	   0.000000	 240.260000	   0.000000; % COW
	2	 0.0	 0.0	 3	   0.000000	 240.260000	   0.000000; % NUC
	2	 0.0	 0.0	 3	   0.000000	 240.260000	   0.000000; % COW
	2	 0.0	 0.0	 3	   0.000000	 240.260000	   0.000000; % COW
	2	 0.0	 0.0	 3	   0.000000	 240.260000	   0.000000; % COW
	2	 0.0	 0.0	 3	   0.000000	 240.260000	   0.000000; % COW
	2	 0.0	 0.0	 3	   0.000000	 240.260000	   0.000000; % COW
	2	 0.0	 0.0	 3	   0.000000	 240.260000	   0.000000; % COW
	2	 0.0	 0.0	 3	   0.000000	 240.260000	   0.000000; % NG
	2	 0.0	 0.0	 3	   0.000000	 240.260000	   0.000000; % NG
	2	 0.0	 0.0	 3	   0.000000	 240.260000	   0.000000; % NG
	2	 0.0	 0.0	 3	   0.000000	 236.700000	   0.000000; % NG
	2	 0.0	 0.0	 3	   0.000000	 236.700000	   0.000000; % COW
	2	 0.0	 0.0	 3	   0.000000	 236.700000	   0.000000; % COW
	2	 0.0	 0.0	 3	   0.000000	 236.700000	   0.000000; % COW
	2	 0.0	 0.0	 3	   0.000000	 236.700000	   0.000000; % COW
	2	 0.0	 0.0	 3	   0.000000	 236.700000	   0.000000; % COW
	2	 0.0	 0.0	 3	   0.000000	 236.700000	   0.000000; % NG
	2	 0.0	 0.0	 3	   0.000000	 236.700000	   0.000000; % NG
	2	 0.0	 0.0	 3	   0.000000	 236.700000	   0.000000; % NG
	2	 0.0	 0.0	 3	   0.000000	 100.000000	   0.000000; % NG
	2	 0.0	 0.0	 3	   0.000000	 198.860000	   0.000000; % NG
	2	 0.0	 0.0	 3	   0.000000	 198.860000	   0.000000; % NG
	2	 0.0	 0.0	 3	   0.000000	 198.860000	   0.000000; % NG
	2	 0.0	 0.0	 3	   0.000000	 198.860000	   0.000000; % NG
	2	 0.0	 0.0	 3	   0.000000	 198.860000	   0.000000; % NG
	2	 0.0	 0.0	 3	   0.000000	 198.860000	   0.000000; % NG
	2	 0.0	 0.0	 3	   0.000000	 198.860000	   0.000000; % PEL
	2	 0.0	 0.0	 3	   0.000000	 198.860000	   0.000000; % NG
	2	 0.0	 0.0	 3	   0.000000	 198.860000	   0.000000; % NG
	2	 0.0	 0.0	 3	   0.000000	 198.860000	   0.000000; % NG
	2	 0.0	 0.0	 3	   0.000000	 198.860000	   0.000000; % NG
	2	 0.0	 0.0	 3	   0.000000	 198.860000	   0.000000; % NG
	2	 0.0	 0.0	 3	   0.000000	 198.860000	   0.000000; % NG
	2	 0.0	 0.0	 3	   0.000000	 198.860000	   0.000000; % NG
	2	 0.0	 0.0	 3	   0.000000	 198.860000	   0.000000; % NG
	2	 0.0	 0.0	 3	   0.000000	 198.860000	   0.000000; % COW
	2	 0.0	 0.0	 3	   0.000000	 198.860000	   0.000000; % NG
	2	 0.0	 0.0	 3	   0.000000	 198.860000	   0.000000; % NG
	2	 0.0	 0.0	 3	   0.000000	 198.860000	   0.000000; % NG
	2	 0.0	 0.0	 3	   0.000000	 198.860000	   0.000000; % COW
	2	 0.0	 0.0	 3	   0.000000	 198.860000	   0.000000; % NG
	2	 0.0	 0.0	 3	   0.000000	 198.860000	   0.000000; % COW
	2	 0.0	 0.0	 3	   0.000000	 198.860000	   0.000000; % NG
	2	 0.0	 0.0	 3	   0.000000	 198.860000	   0.000000; % COW
	2	 0.0	 0.0	 3	   0.000000	 198.860000	   0.000000; % NG
	2	 0.0	 0.0	 3	   0.000000	 198.860000	   0.000000; % NG
	2	 0.0	 0.0	 3	   0.000000	 198.860000	   0.000000; % COW
	2	 0.0	 0.0	 3	   0.000000	 198.860000	   0.000000; % NG
	2	 0.0	 0.0	 3	   0.000000	 198.860000	   0.000000; % COW
	2	 0.0	 0.0	 3	   0.000000	 198.860000	   0.000000; % COW
	2	 0.0	 0.0	 3	   0.000000	 198.860000	   0.000000; % COW
	2	 0.0	 0.0	 3	   0.000000	 198.860000	   0.000000; % NG
	2	 0.0	 0.0	 3	   0.000000	 198.860000	   0.000000; % NG
	2	 0.0	 0.0	 3	   0.000000	 198.860000	   0.000000; % NG
	2	 0.0	 0.0	 3	   0.000000	 198.860000	   0.000000; % NG
	2	 0.0	 0.0	 3	   0.000000	 198.860000	   0.000000; % COW
	2	 0.0	 0.0	 3	   0.000000	 198.860000	   0.000000; % NG
	2	 0.0	 0.0	 3	   0.000000	 198.860000	   0.000000; % PEL
	2	 0.0	 0.0	 3	   0.000000	 198.860000	   0.000000; % NG
	2	 0.0	 0.0	 3	   0.000000	 198.860000	   0.000000; % NG
	2	 0.0	 0.0	 3	   0.000000	 198.860000	   0.000000; % NG
	2	 0.0	 0.0	 3	   0.000000	 198.860000	   0.000000; % NG
	2	 0.0	 0.0	 3	   0.000000	 198.860000	   0.000000; % NG
	2	 0.0	 0.0	 3	   0.000000	 198.860000	   0.000000; % COW
	2	 0.0	 0.0	 3	   0.000000	 198.860000	   0.000000; % NG
	2	 0.0	 0.0	 3	   0.000000	 198.860000	   0.000000; % NG
	2	 0.0	 0.0	 3	   0.000000	 198.860000	   0.000000; % COW
	2	 0.0	 0.0	 3	   0.000000	 198.860000	   0.000000; % NG
	2	 0.0	 0.0	 3	   0.000000	 198.860000	   0.000000; % NG
	2	 0.0	 0.0	 3	   0.000000	 198.860000	   0.000000; % PEL
	2	 0.0	 0.0	 3	   0.000000	 198.860000	   0.000000; % NG
	2	 0.0	 0.0	 3	   0.000000	 198.860000	   0.000000; % COW
	2	 0.0	 0.0	 3	   0.000000	 198.860000	   0.000000; % PEL
	2	 0.0	 0.0	 3	   0.000000	 198.860000	   0.000000; % NG
	2	 0.0	 0.0	 3	   0.000000	 198.860000	   0.000000; % NG
	2	 0.0	 0.0	 3	   0.000000	 198.860000	   0.000000; % NG
	2	 0.0	 0.0	 3	   0.000000	 198.860000	   0.000000; % NG
	2	 0.0	 0.0	 3	   0.000000	 198.860000	   0.000000; % COW
	2	 0.0	 0.0	 3	   0.000000	 198.860000	   0.000000; % NG
	2	 0.0	 0.0	 3	   0.000000	 198.860000	   0.000000; % NG
	2	 0.0	 0.0	 3	   0.000000	 198.860000	   0.000000; % NG
	2	 0.0	 0.0	 3	   0.000000	 198.860000	   0.000000; % NG
	2	 0.0	 0.0	 3	   0.000000	 158.610000	   0.000000; % COW
	2	 0.0	 0.0	 3	   0.000000	 158.610000	   0.000000; % NG
	2	 0.0	 0.0	 3	   0.000000	 107.030000	   0.000000; % NG
	2	 0.0	 0.0	 3	   0.000000	 107.030000	   0.000000; % NG
	2	 0.0	 0.0	 3	   0.000000	 107.030000	   0.000000; % NG
	2	 0.0	 0.0	 3	   0.000000	 107.030000	   0.000000; % NG
	2	 0.0	 0.0	 3	   0.000000	 107.030000	   0.000000; % NG
	2	 0.0	 0.0	 3	   0.000000	 107.030000	   0.000000; % COW
	2	 0.0	 0.0	 3	   0.000000	 107.030000	   0.000000; % NG
	2	 0.0	 0.0	 3	   0.000000	 107.030000	   0.000000; % NG
	2	 0.0	 0.0	 3	   0.000000	 107.030000	   0.000000; % NG
	2	 0.0	 0.0	 3	   0.000000	 107.030000	   0.000000; % COW
	2	 0.0	 0.0	 3	   0.000000	 107.030000	   0.000000; % COW
	2	 0.0	 0.0	 3	   0.000000	 143.520000	   0.000000; % NG
	2	 0.0	 0.0	 3	   0.000000	 143.520000	   0.000000; % NG
	2	 0.0	 0.0	 3	   0.000000	 143.520000	   0.000000; % PEL
	2	 0.0	 0.0	 3	   0.000000	 143.520000	   0.000000; % COW
	2	 0.0	 0.0	 3	   0.000000	 143.520000	   0.000000; % NG
	2	 0.0	 0.0	 3	   0.000000	 143.520000	   0.000000; % NG
	2	 0.0	 0.0	 3	   0.000000	 143.520000	   0.000000; % COW
	2	 0.0	 0.0	 3	   0.000000	 143.520000	   0.000000; % COW
	2	 0.0	 0.0	 3	   0.000000	 148.160000	   0.000000; % NG
	2	 0.0	 0.0	 3	   0.000000	 148.160000	   0.000000; % NG
	2	 0.0	 0.0	 3	   0.000000	 148.160000	   0.000000; % NG
	2	 0.0	 0.0	 3	   0.000000	 148.160000	   0.000000; % NG
	2	 0.0	 0.0	 3	   0.000000	 148.160000	   0.000000; % NG
	2	 0.0	 0.0	 3	   0.000000	 148.160000	   0.000000; % NG
	2	 0.0	 0.0	 3	   0.000000	 148.160000	   0.000000; % NG
	2	 0.0	 0.0	 3	   0.000000	   0.000000	   0.000000; % NG
	2	 0.0	 0.0	 3	   0.000000	 134.040000	   0.000000; % NG
	2	 0.0	 0.0	 3	   0.000000	 134.040000	   0.000000; % NG
	2	 0.0	 0.0	 3	   0.000000	 134.040000	   0.000000; % NG
	2	 0.0	 0.0	 3	   0.000000	 134.040000	   0.000000; % NG
	2	 0.0	 0.0	 3	   0.000000	 134.040000	   0.000000; % NG
	2	 0.0	 0.0	 3	   0.000000	 126.620000	   0.000000; % NG
	2	 0.0	 0.0	 3	   0.000000	 126.620000	   0.000000; % NG
	2	 0.0	 0.0	 3	   0.000000	   0.000000	   0.000000; % NG
	2	 0.0	 0.0	 3	   0.000000	   0.000000	   0.000000; % PEL
	2	 0.0	 0.0	 3	   0.000000	 130.490000	   0.000000; % NG
	2	 0.0	 0.0	 3	   0.000000	 130.490000	   0.000000; % NG
	2	 0.0	 0.0	 3	   0.000000	 132.330000	   0.000000; % NG
	2	 0.0	 0.0	 3	   0.000000	 132.330000	   0.000000; % NG
	2	 0.0	 0.0	 3	   0.000000	 136.590000	   0.000000; % NG
	2	 0.0	 0.0	 3	   0.000000	 136.590000	   0.000000; % COW
	2	 0.0	 0.0	 3	   0.000000	 139.960000	   0.000000; % COW
	2	 0.0	 0.0	 3	   0.000000	 128.210000	   0.000000; % NG
	2	 0.0	 0.0	 3	   0.000000	 128.210000	   0.000000; % COW
	2	 0.0	 0.0	 3	   0.000000	 128.210000	   0.000000; % NG
	2	 0.0	 0.0	 3	   0.000000	 128.210000	   0.000000; % NG
	2	 0.0	 0.0	 3	   0.000000	 128.210000	   0.000000; % NG
	2	 0.0	 0.0	 3	   0.000000	 137.400000	   0.000000; % NG
	2	 0.0	 0.0	 3	   0.000000	 137.400000	   0.000000; % NG
	2	 0.0	 0.0	 3	   0.000000	 137.400000	   0.000000; % NG
	2	 0.0	 0.0	 3	   0.000000	 137.400000	   0.000000; % NG
	2	 0.0	 0.0	 3	   0.000000	 129.990000	   0.000000; % COW
	2	 0.0	 0.0	 3	   0.000000	 129.990000	   0.000000; % NG
	2	 0.0	 0.0	 3	   0.000000	 129.990000	   0.000000; % NG
	2	 0.0	 0.0	 3	   0.000000	 135.600000	   0.000000; % NG
	2	 0.0	 0.0	 3	   0.000000	 135.600000	   0.000000; % NG
	2	 0.0	 0.0	 3	   0.000000	 135.600000	   0.000000; % NG
	2	 0.0	 0.0	 3	   0.000000	 163.160000	   0.000000; % NG
	2	 0.0	 0.0	 3	   0.000000	 163.160000	   0.000000; % NG
	2	 0.0	 0.0	 3	   0.000000	 163.160000	   0.000000; % NG
	2	 0.0	 0.0	 3	   0.000000	 163.160000	   0.000000; % NG
	2	 0.0	 0.0	 3	   0.000000	 163.160000	   0.000000; % COW
	2	 0.0	 0.0	 3	   0.000000	 163.160000	   0.000000; % NG
	2	 0.0	 0.0	 3	   0.000000	 163.160000	   0.000000; % NG
	2	 0.0	 0.0	 3	   0.000000	 139.010000	   0.000000; % NG
	2	 0.0	 0.0	 3	   0.000000	 139.010000	   0.000000; % NG
	2	 0.0	 0.0	 3	   0.000000	 139.010000	   0.000000; % NG
	2	 0.0	 0.0	 3	   0.000000	 139.010000	   0.000000; % NG
	2	 0.0	 0.0	 3	   0.000000	 139.010000	   0.000000; % NG
	2	 0.0	 0.0	 3	   0.000000	 139.010000	   0.000000; % NG
	2	 0.0	 0.0	 3	   0.000000	 139.010000	   0.000000; % NG
	2	 0.0	 0.0	 3	   0.000000	 139.010000	   0.000000; % NG
	2	 0.0	 0.0	 3	   0.000000	 125.480000	   0.000000; % NG
	2	 0.0	 0.0	 3	   0.000000	 125.480000	   0.000000; % NG
	2	 0.0	 0.0	 3	   0.000000	 125.480000	   0.000000; % COW
	2	 0.0	 0.0	 3	   0.000000	 125.480000	   0.000000; % NG
	2	 0.0	 0.0	 3	   0.000000	 125.480000	   0.000000; % NG
	2	 0.0	 0.0	 3	   0.000000	 137.400000	   0.000000; % NG
	2	 0.0	 0.0	 3	   0.000000	 137.400000	   0.000000; % NG
	2	 0.0	 0.0	 3	   0.000000	 137.400000	   0.000000; % NG
	2	 0.0	 0.0	 3	   0.000000	 137.400000	   0.000000; % NG
	2	 0.0	 0.0	 3	   0.000000	 137.400000	   0.000000; % COW
	2	 0.0	 0.0	 3	   0.000000	   0.000000	   0.000000; % NG
	2	 0.0	 0.0	 3	   0.000000	   0.000000	   0.000000; % NG
	2	 0.0	 0.0	 3	   0.000000	   0.000000	   0.000000; % NG
	2	 0.0	 0.0	 3	   0.000000	   0.000000	   0.000000; % NG
	2	 0.0	 0.0	 3	   0.000000	   0.000000	   0.000000; % COW
	2	 0.0	 0.0	 3	   0.000000	   0.000000	   0.000000; % PEL
	2	 0.0	 0.0	 3	   0.000000	   0.000000	   0.000000; % PEL
	2	 0.0	 0.0	 3	   0.000000	   0.000000	   0.000000; % COW
	2	 0.0	 0.0	 3	   0.000000	   0.000000	   0.000000; % PEL
	2	 0.0	 0.0	 3	   0.000000	   0.000000	   0.000000; % NG
	2	 0.0	 0.0	 3	   0.000000	   0.000000	   0.000000; % NG
	2	 0.0	 0.0	 3	   0.000000	   0.000000	   0.000000; % NG
	2	 0.0	 0.0	 3	   0.000000	   0.000000	   0.000000; % NG
	2	 0.0	 0.0	 3	   0.000000	 107.030000	   0.000000; % NG
	2	 0.0	 0.0	 3	   0.000000	   0.000000	   0.000000; % PEL
	2	 0.0	 0.0	 3	   0.000000	   0.000000	   0.000000; % NG
	2	 0.0	 0.0	 3	   0.000000	   0.000000	   0.000000; % NG
	2	 0.0	 0.0	 3	   0.000000	   0.000000	   0.000000; % PEL
	2	 0.0	 0.0	 3	   0.000000	   0.000000	   0.000000; % PEL
	2	 0.0	 0.0	 3	   0.000000	   0.000000	   0.000000; % PEL
	2	 0.0	 0.0	 3	   0.000000	   0.000000	   0.000000; % PEL
...
];

%% branch data
%	fbus	tbus	r	x	b	rateA	rateB	rateC	ratio	angle	status	angmin	angmax
mpc.branch = [
	10330	 10331	 1e-05	 8e-05	 0.0	 183	 183	 183	 0.0	 0.0	 1	 -30.0	 30.0;
	10300	 10355	 0.05932	 0.20245	 0.0	 122	 122	 122	 0.0	 0.0	 1	 -30.0	 30.0;
	10300	 10360	 0.02058	 0.05185	 0.0	 106	 106	 106	 0.0	 0.0	 1	 -30.0	 30.0;
	10367	 10201	 2e-05	 -0.04958	 0.0	 659	 200.0	 200.0	 0.999	 0.0	 1	 -30.0	 30.0;
	10367	 10202	 6e-05	 0.08346	 0.0	 391	 200.0	 200.0	 0.99999	 0.0	 1	 -30.0	 30.0;
	10366	 10367	 0.0026	 0.25917	 0.0	 127	 127	 127	 0.99999	 0.0	 1	 -30.0	 30.0;
	10368	 10215	 2e-05	 -0.04961	 0.0	 659	 200.0	 200.0	 0.999	 0.0	 1	 -30.0	 30.0;
	10368	 10216	 6e-05	 0.08373	 0.0	 390	 200.0	 200.0	 0.99999	 0.0	 1	 -30.0	 30.0;
	10369	 10368	 0.0026	 0.26125	 0.0	 126	 126	 126	 0.99999	 0.0	 1	 -30.0	 30.0;
	10090	 10083	 8e-05	 0.00079	 0.41456	 736	 736	 736	 0.0	 0.0	 1	 -30.0	 30.0;
	10138	 10164	 0.00168	 0.01733	 0.75504	 752	 752	 752	 0.0	 0.0	 1	 -30.0	 30.0;
	10139	 10109	 0.00071	 0.00594	 0.27872	 680	 680	 680	 0.0	 0.0	 1	 -30.0	 30.0;
	10139	 10144	 0.00075	 0.00681	 0.312	 707	 707	 707	 0.0	 0.0	 1	 -30.0	 30.0;
	10139	 10153	 0.00194	 0.02	 0.8336	 751	 751	 751	 0.0	 0.0	 1	 -30.0	 30.0;
	10140	 10110	 0.00071	 0.00594	 0.27872	 680	 680	 680	 0.0	 0.0	 1	 -30.0	 30.0;
	10140	 10143	 0.00075	 0.00681	 0.312	 707	 707	 707	 0.0	 0.0	 1	 -30.0	 30.0;
	10140	 10153	 0.00194	 0.02	 0.8336	 751	 751	 751	 0.0	 0.0	 1	 -30.0	 30.0;
	10141	 10153	 0.00233	 0.01696	 0.70784	 637	 637	 637	 0.0	 0.0	 1	 -30.0	 30.0;
	10090	 10085	 0.00017	 0.00148	 1.23008	 693	 693	 693	 0.0	 0.0	 1	 -30.0	 30.0;
	10141	 10158	 0.00204	 0.01707	 0.71344	 680	 680	 680	 0.0	 0.0	 1	 -30.0	 30.0;
	10141	 10158	 0.00204	 0.01707	 0.71344	 680	 680	 680	 0.0	 0.0	 1	 -30.0	 30.0;
	10143	 10144	 1e-05	 6e-05	 0.0	 581	 581	 581	 0.0	 0.0	 1	 -30.0	 30.0;
	10143	 10153	 0.00169	 0.01381	 0.6496	 673	 673	 673	 0.0	 0.0	 1	 -30.0	 30.0;
	10143	 10156	 0.00119	 0.00969	 0.4544	 672	 672	 672	 0.0	 0.0	 1	 -30.0	 30.0;
	10144	 10126	 0.00306	 0.02537	 1.19168	 677	 677	 677	 0.0	 0.0	 1	 -30.0	 30.0;
	10144	 10153	 0.00169	 0.01381	 0.6496	 673	 673	 673	 0.0	 0.0	 1	 -30.0	 30.0;
	10144	 10165	 0.00244	 0.02044	 0.9584	 681	 681	 681	 0.0	 0.0	 1	 -30.0	 30.0;
	10091	 10090	 9e-05	 0.00106	 1.10432	 801	 801	 801	 0.0	 0.0	 1	 -30.0	 30.0;
	10145	 10147	 0.00194	 0.01606	 0.75456	 677	 677	 677	 0.0	 0.0	 1	 -30.0	 30.0;
	10145	 10158	 0.00189	 0.01232	 0.61088	 604	 604	 604	 0.0	 0.0	 1	 -30.0	 30.0;
	10171	 10094	 0.0	 6e-05	 0.0	 99999.0	 1593.0	 1593.0	 0.0	 0.0	 1	 -30.0	 30.0;
	10145	 10082	 0.00091	 0.00923	 0.39197	 746	 746	 746	 0.0	 0.0	 1	 -30.0	 30.0;
	10145	 10082	 0.00091	 0.00923	 0.39197	 746	 746	 746	 0.0	 0.0	 1	 -30.0	 30.0;
	10146	 10154	 0.00503	 0.01845	 0.05812	 253	 253	 253	 0.0	 0.0	 1	 -30.0	 30.0;
	10172	 10095	 0.0	 6e-05	 0.0	 99999.0	 1386.0	 1386.0	 0.0	 0.0	 1	 -30.0	 30.0;
	10147	 10153	 0.00156	 0.01288	 0.6032	 676	 676	 676	 0.0	 0.0	 1	 -30.0	 30.0;
...